
     RDKit          3D

 23 24  0  0  0  0  0  0  0  0999 V2000
    8.2390   -4.7220   26.2860 S   0  0  2  0  0  0  0  0  0  0  0  0
    8.1650   -4.8190   24.6690 N   0  0  0  0  0  0  0  0  0  0  0  0
    6.8830    0.3640   17.7170 N   0  0  0  0  0  0  0  0  0  0  0  0
    8.1110   -3.6240   23.8100 C   0  0  0  0  0  0  0  0  0  0  0  0
   12.0900   -1.3550   22.0180 C   0  0  0  0  0  0  0  0  0  0  0  0
    7.5470   -5.8620   26.8010 O   0  0  0  0  0  0  0  0  0  0  0  0
    5.7860    0.9230   18.2480 C   0  0  0  0  0  0  0  0  0  0  0  0
    9.3650   -2.7610   23.8700 C   0  0  0  0  0  0  0  0  0  0  0  0
    6.4100    0.3080   20.4590 C   0  0  0  0  0  0  0  0  0  0  0  0
    7.5560   -0.2850   19.9400 C   0  0  0  0  0  0  0  0  0  0  0  0
    8.5580   -1.1440   22.0810 C   0  0  0  0  0  0  0  0  0  0  0  0
   10.9460   -1.1710   22.7860 C   0  0  0  0  0  0  0  0  0  0  0  0
   13.1980    0.4320   23.1730 C   0  0  0  0  0  0  0  0  0  0  0  0
    7.7430   -0.2260   18.5570 C   0  0  0  0  0  0  0  0  0  0  0  0
   13.2090   -0.5570   22.2090 C   0  0  0  0  0  0  0  0  0  0  0  0
   12.0710    0.6200   23.9500 C   0  0  0  0  0  0  0  0  0  0  0  0
    7.3560   -3.2890   26.7750 C   0  0  0  0  0  0  0  0  0  0  0  0
    8.5190   -0.9610   20.7350 N   0  0  0  0  0  0  0  0  0  0  0  0
    9.6150   -4.5410   26.6300 O   0  0  0  0  0  0  0  0  0  0  0  0
    7.7550   -0.6370   22.8650 O   0  0  0  0  0  0  0  0  0  0  0  0
    5.5100    0.9190   19.6020 C   0  0  0  0  0  0  0  0  0  0  0  0
    9.7100   -2.0310   22.5610 C   0  0  1  0  0  0  0  0  0  0  0  0
   10.9510   -0.1790   23.7600 C   0  0  0  0  0  0  0  0  0  0  0  0
  2  1  1  0
  4  2  1  0
  6  1  1  0
  7  3  1  0
  8  4  1  0
 10  9  1  0
 12  5  1  0
 14 10  1  0
 14  3  1  0
 15 13  1  0
 15  5  1  0
 16 13  1  0
  1 17  1  1
 18 10  1  0
 18 11  1  0
 19  1  1  0
 20 11  1  0
 21  9  1  0
 21  7  1  0
 22 11  1  0
 22  8  1  1
 22 12  1  0
 23 16  1  0
 23 12  1  0
M  END
$$$$

     RDKit          3D

 11 11  0  0  0  0  0  0  0  0999 V2000
   10.1780   -0.7290   22.5700 C   0  0  0  0  0  0  0  0  0  0  0  0
    9.2820   -0.1030   21.5030 C   0  0  0  0  0  0  0  0  0  0  0  0
    7.1790   -0.1530   20.1080 C   0  0  0  0  0  0  0  0  0  0  0  0
    7.5510   -0.2150   18.7710 C   0  0  0  0  0  0  0  0  0  0  0  0
    5.6690    0.9130   18.1140 C   0  0  0  0  0  0  0  0  0  0  0  0
    5.2170    1.0310   19.4220 C   0  0  0  0  0  0  0  0  0  0  0  0
    5.9870    0.4820   20.4470 C   0  0  0  0  0  0  0  0  0  0  0  0
    5.5470    0.5830   21.9050 C   0  0  0  0  0  0  0  0  0  0  0  0
    8.0330   -0.7430   21.1270 N   0  0  0  0  0  0  0  0  0  0  0  0
    6.7980    0.3080   17.8220 N   0  0  0  0  0  0  0  0  0  0  0  0
    9.6090    0.9110   20.9910 O   0  0  0  0  0  0  0  0  0  0  0  0
  2  1  1  0
  4  3  1  0
  6  5  1  0
  7  6  1  0
  7  3  1  0
  8  7  1  0
  9  3  1  0
  9  2  1  0
 10  5  1  0
 10  4  1  0
 11  2  1  0
M  END
$$$$

     RDKit          3D

 16 17  0  0  0  0  0  0  0  0999 V2000
    8.7390   -0.2790   21.3670 C   0  0  0  0  0  0  0  0  0  0  0  0
   10.6660   -0.5430   22.8360 C   0  0  0  0  0  0  0  0  0  0  0  0
   10.7070    0.2840   23.9390 C   0  0  0  0  0  0  0  0  0  0  0  0
   11.9150    0.7890   24.3530 C   0  0  0  0  0  0  0  0  0  0  0  0
   13.0720    0.4730   23.6550 C   0  0  0  0  0  0  0  0  0  0  0  0
   13.0220   -0.3540   22.5460 C   0  0  0  0  0  0  0  0  0  0  0  0
   11.8080   -0.8600   22.1250 C   0  0  0  0  0  0  0  0  0  0  0  0
    6.7490   -0.0030   19.8770 C   0  0  0  0  0  0  0  0  0  0  0  0
    5.5470    0.6240   20.1630 C   0  0  0  0  0  0  0  0  0  0  0  0
    4.9190    1.2890   19.1220 C   0  0  0  0  0  0  0  0  0  0  0  0
    5.5090    1.2610   17.8640 C   0  0  0  0  0  0  0  0  0  0  0  0
    7.2890    0.0280   18.6020 C   0  0  0  0  0  0  0  0  0  0  0  0
    9.3770   -1.0150   22.4320 N   0  0  0  0  0  0  0  0  0  0  0  0
    7.4290   -0.6970   20.9370 N   0  0  0  0  0  0  0  0  0  0  0  0
    6.6560    0.6620   17.6510 N   0  0  0  0  0  0  0  0  0  0  0  0
    9.2940    0.6380   20.8600 O   0  0  0  0  0  0  0  0  0  0  0  0
  3  2  1  0
  4  3  1  0
  5  4  1  0
  6  5  1  0
  7  2  1  0
  7  6  1  0
  9  8  1  0
 10  9  1  0
 11 10  1  0
 12  8  1  0
 13  1  1  0
 13  2  1  0
 14  8  1  0
 14  1  1  0
 15 12  1  0
 15 11  1  0
 16  1  1  0
M  END
$$$$

     RDKit          3D

 16 17  0  0  0  0  0  0  0  0999 V2000
    8.9620    0.2240   21.7200 C   0  0  0  0  0  0  0  0  0  0  0  0
    9.5140   -0.2640   23.0540 C   0  0  0  0  0  0  0  0  0  0  0  0
   11.0320   -0.1730   23.1190 C   0  0  2  0  0  0  0  0  0  0  0  0
   11.6820   -1.1180   22.1100 C   0  0  0  0  0  0  0  0  0  0  0  0
   12.9270   -1.8160   22.6520 C   0  0  0  0  0  0  0  0  0  0  0  0
   13.7410   -0.9860   23.6350 C   0  0  0  0  0  0  0  0  0  0  0  0
   12.9140   -0.2780   24.7030 C   0  0  0  0  0  0  0  0  0  0  0  0
   11.4160   -0.5000   24.5520 C   0  0  0  0  0  0  0  0  0  0  0  0
    7.0890    0.1080   20.1160 C   0  0  0  0  0  0  0  0  0  0  0  0
    5.8360    0.7020   20.2340 C   0  0  0  0  0  0  0  0  0  0  0  0
    5.2350    1.1350   19.0570 C   0  0  0  0  0  0  0  0  0  0  0  0
    5.9150    0.9580   17.8610 C   0  0  0  0  0  0  0  0  0  0  0  0
    7.7280   -0.0310   18.8990 C   0  0  0  0  0  0  0  0  0  0  0  0
    7.7050   -0.3290   21.3320 N   0  0  0  0  0  0  0  0  0  0  0  0
    7.1140    0.3960   17.8170 N   0  0  0  0  0  0  0  0  0  0  0  0
    9.5180    1.0170   21.0300 O   0  0  0  0  0  0  0  0  0  0  0  0
  2  1  1  0
  3  2  1  1
  4  3  1  0
  5  4  1  0
  6  5  1  0
  7  6  1  0
  8  7  1  0
  8  3  1  0
 10  9  1  0
 11 10  1  0
 12 11  1  0
 13  9  1  0
 14  9  1  0
 14  1  1  0
 15 13  1  0
 15 12  1  0
 16  1  1  0
M  END
$$$$

     RDKit          3D

 22 24  0  0  0  0  0  0  0  0999 V2000
    9.6800    0.8310   20.9380 O   0  0  0  0  0  0  0  0  0  0  0  0
    9.0740   -0.1480   21.3610 C   0  0  2  0  0  0  0  0  0  0  0  0
    7.7540   -0.3430   21.1730 N   0  0  0  0  0  0  0  0  0  0  0  0
    6.9630   -0.0260   20.0450 C   0  0  2  0  0  0  0  0  0  0  0  0
    7.4930    0.0810   18.7570 C   0  0  0  0  0  0  0  0  0  0  0  0
    6.8310    0.5930   17.7130 N   0  0  0  0  0  0  0  0  0  0  0  0
    5.5900    1.0300   17.9370 C   0  0  0  0  0  0  0  0  0  0  0  0
    4.9730    0.9750   19.1710 C   0  0  0  0  0  0  0  0  0  0  0  0
    5.6530    0.4360   20.2590 C   0  0  2  0  0  0  0  0  0  0  0  0
    5.0190    0.4260   21.6260 C   0  0  0  0  0  0  0  0  0  0  0  0
    9.7680   -1.1760   22.2350 C   0  0  0  0  0  0  0  0  0  0  0  0
    8.9660   -1.6160   23.3610 N   0  0  0  0  0  0  0  0  0  0  0  0
    9.1940   -2.7650   24.0670 C   0  0  0  0  0  0  0  0  0  0  0  0
    8.2730   -3.1720   25.0820 C   0  0  0  0  0  0  0  0  0  0  0  0
    7.0810   -2.4670   25.3890 C   0  0  0  0  0  0  0  0  0  0  0  0
    6.2300   -2.9220   26.3520 C   0  0  0  0  0  0  0  0  0  0  0  0
    6.5150   -4.0840   27.0560 C   0  0  0  0  0  0  0  0  0  0  0  0
    7.6530   -4.7950   26.7980 C   0  0  0  0  0  0  0  0  0  0  0  0
    8.5560   -4.3610   25.8010 C   0  0  0  0  0  0  0  0  0  0  0  0
    9.6620   -5.1290   25.5470 N   0  0  0  0  0  0  0  0  0  0  0  0
   10.4800   -4.7090   24.5980 C   0  0  0  0  0  0  0  0  0  0  0  0
   10.2990   -3.5600   23.8470 C   0  0  0  0  0  0  0  0  0  0  0  0
  2  1  1  1
  3  2  1  0
  4  3  1  1
  5  4  1  0
  6  5  1  0
  7  6  1  0
  8  7  1  0
  9  8  1  0
  9  4  1  0
  9 10  1  1
 11  2  1  0
 12 11  1  0
 13 12  1  0
 14 13  1  0
 15 14  1  0
 16 15  1  0
 17 16  1  0
 18 17  1  0
 19 18  1  0
 19 14  1  0
 20 19  1  0
 21 20  1  0
 22 21  1  0
 22 13  1  0
M  END
$$$$

     RDKit          3D

 17 18  0  0  0  0  0  0  0  0999 V2000
    9.3050    1.0200   21.0400 O   0  0  0  0  0  0  0  0  0  0  0  0
    8.7830    0.0150   21.5070 C   0  0  0  0  0  0  0  0  0  0  0  0
    7.3330   -0.2460   21.3530 C   0  0  0  0  0  0  0  0  0  0  0  0
    6.6840    0.2230   20.1000 C   0  0  0  0  0  0  0  0  0  0  0  0
    7.2550   -0.0060   18.8510 C   0  0  0  0  0  0  0  0  0  0  0  0
    6.7310    0.4380   17.7060 N   0  0  0  0  0  0  0  0  0  0  0  0
    5.5930    1.1390   17.7770 C   0  0  0  0  0  0  0  0  0  0  0  0
    4.9450    1.4150   18.9640 C   0  0  0  0  0  0  0  0  0  0  0  0
    5.5000    0.9470   20.1370 C   0  0  0  0  0  0  0  0  0  0  0  0
    6.6430   -0.8360   22.3210 C   0  0  0  0  0  0  0  0  0  0  0  0
    9.4740   -0.9060   22.1940 N   0  0  0  0  0  0  0  0  0  0  0  0
   10.8170   -0.7820   22.6000 C   0  0  1  0  0  0  0  0  0  0  0  0
   11.7940   -1.6690   22.1770 C   0  0  0  0  0  0  0  0  0  0  0  0
   13.1310   -1.3500   22.3390 C   0  0  0  0  0  0  0  0  0  0  0  0
   13.4970   -0.1650   22.9420 C   0  0  0  0  0  0  0  0  0  0  0  0
   12.5320    0.6910   23.4120 C   0  0  0  0  0  0  0  0  0  0  0  0
   11.1900    0.3880   23.2520 C   0  0  0  0  0  0  0  0  0  0  0  0
  2  1  1  0
  3  2  1  0
  4  3  1  0
  5  4  1  0
  6  5  1  0
  7  6  1  0
  8  7  1  0
  9  8  1  0
  9  4  1  0
 10  3  1  0
 11  2  1  0
 12 11  1  6
 13 12  1  0
 14 13  1  0
 15 14  1  0
 16 15  1  0
 17 12  1  0
 17 16  1  0
M  END
$$$$

     RDKit          3D

 18 19  0  0  0  0  0  0  0  0999 V2000
   14.5580   -2.1150   20.5300 N   0  0  0  0  0  0  0  0  0  0  0  0
   13.8340   -1.5550   21.2100 C   0  0  0  0  0  0  0  0  0  0  0  0
   12.8780   -0.8720   22.0400 C   0  0  1  0  0  0  0  0  0  0  0  0
   13.2570    0.1460   22.9130 C   0  0  0  0  0  0  0  0  0  0  0  0
   12.3840    0.8460   23.6490 N   0  0  0  0  0  0  0  0  0  0  0  0
   11.0800    0.5560   23.5060 C   0  0  0  0  0  0  0  0  0  0  0  0
   11.5240   -1.1660   21.9210 C   0  0  0  0  0  0  0  0  0  0  0  0
   10.5960   -0.4240   22.6350 C   0  0  2  0  0  0  0  0  0  0  0  0
    9.2410   -0.6320   22.3060 N   0  0  0  0  0  0  0  0  0  0  0  0
    8.5330    0.0330   21.3740 C   0  0  0  0  0  0  0  0  0  0  0  0
    8.9350    1.0520   20.8190 O   0  0  0  0  0  0  0  0  0  0  0  0
    7.1850   -0.5780   21.0460 C   0  0  0  0  0  0  0  0  0  0  0  0
    6.5330    0.1090   19.8680 C   0  0  0  0  0  0  0  0  0  0  0  0
    7.0060   -0.0800   18.5800 C   0  0  0  0  0  0  0  0  0  0  0  0
    6.4810    0.5050   17.4970 N   0  0  0  0  0  0  0  0  0  0  0  0
    5.4350    1.3220   17.6830 C   0  0  0  0  0  0  0  0  0  0  0  0
    4.8890    1.5820   18.9260 C   0  0  0  0  0  0  0  0  0  0  0  0
    5.4480    0.9590   20.0270 C   0  0  0  0  0  0  0  0  0  0  0  0
  2  1  1  0
  3  2  1  6
  4  3  1  0
  5  4  1  0
  6  5  1  0
  7  3  1  0
  8  7  1  0
  8  6  1  0
  8  9  1  6
 10  9  1  0
 11 10  1  0
 12 10  1  0
 13 12  1  0
 14 13  1  0
 15 14  1  0
 16 15  1  0
 17 16  1  0
 18 17  1  0
 18 13  1  0
M  END
$$$$

     RDKit          3D

 17 18  0  0  0  0  0  0  0  0999 V2000
    9.0680    0.8800   20.9630 O   0  0  0  0  0  0  0  0  0  0  0  0
    8.4900   -0.1230   21.3590 C   0  0  0  0  0  0  0  0  0  0  0  0
    8.9870   -0.9270   22.5440 C   0  0  0  0  0  0  0  0  0  0  0  0
   10.4590   -0.6960   22.7890 C   0  0  2  0  0  0  0  0  0  0  0  0
   10.8970    0.1970   23.7590 C   0  0  0  0  0  0  0  0  0  0  0  0
   12.2430    0.4970   23.8890 C   0  0  0  0  0  0  0  0  0  0  0  0
   13.1780   -0.1010   23.0590 C   0  0  0  0  0  0  0  0  0  0  0  0
   11.4010   -1.3160   21.9770 C   0  0  0  0  0  0  0  0  0  0  0  0
   12.7380   -1.0080   22.1200 C   0  0  0  0  0  0  0  0  0  0  0  0
   13.8990   -1.8270   21.1200 Cl  0  0  0  0  0  0  0  0  0  0  0  0
    7.3580   -0.5750   20.8120 N   0  0  0  0  0  0  0  0  0  0  0  0
    6.6810    0.0460   19.7520 C   0  0  2  0  0  0  0  0  0  0  0  0
    7.2310    0.0370   18.4730 C   0  0  0  0  0  0  0  0  0  0  0  0
    6.6970    0.6910   17.4400 N   0  0  0  0  0  0  0  0  0  0  0  0
    5.5750    1.3840   17.6630 C   0  0  0  0  0  0  0  0  0  0  0  0
    4.9460    1.4450   18.8890 C   0  0  0  0  0  0  0  0  0  0  0  0
    5.5130    0.7690   19.9520 C   0  0  0  0  0  0  0  0  0  0  0  0
  2  1  1  0
  3  2  1  0
  4  3  1  6
  5  4  1  0
  6  5  1  0
  7  6  1  0
  8  4  1  0
  9  8  1  0
  9  7  1  0
 10  9  1  0
 11  2  1  0
 12 11  1  1
 13 12  1  0
 14 13  1  0
 15 14  1  0
 16 15  1  0
 17 16  1  0
 17 12  1  0
M  END
$$$$

     RDKit          3D

 25 27  0  0  0  0  0  0  0  0999 V2000
    9.2340   -0.7460   22.4970 N   0  0  0  0  0  0  0  0  0  0  0  0
    6.5650    0.6350   17.6500 N   0  0  0  0  0  0  0  0  0  0  0  0
    7.6130   -5.4310   27.0190 C   0  0  0  0  0  0  0  0  0  0  0  0
   13.2830    0.1320   23.1300 C   0  0  0  0  0  0  0  0  0  0  0  0
    5.4410    1.3210   17.8970 C   0  0  0  0  0  0  0  0  0  0  0  0
    8.7240   -3.5090   25.0200 C   0  0  1  0  0  0  0  0  0  0  0  0
   12.3110    0.6870   23.9490 C   0  0  0  0  0  0  0  0  0  0  0  0
    5.4730    0.7590   20.2090 C   0  0  0  0  0  0  0  0  0  0  0  0
    8.4130   -1.5160   23.4470 C   0  0  0  0  0  0  0  0  0  0  0  0
   11.5870   -1.1760   22.0210 C   0  0  0  0  0  0  0  0  0  0  0  0
   10.6120   -0.5730   22.8140 C   0  0  1  0  0  0  0  0  0  0  0  0
    9.0510   -5.5420   26.5240 C   0  0  0  0  0  0  0  0  0  0  0  0
    7.2800   -3.4180   25.5310 C   0  0  0  0  0  0  0  0  0  0  0  0
    4.8590    1.4070   19.1530 C   0  0  0  0  0  0  0  0  0  0  0  0
    9.2070   -4.9600   25.1160 C   0  0  0  0  0  0  0  0  0  0  0  0
    7.1200   -3.9900   26.9410 C   0  0  0  0  0  0  0  0  0  0  0  0
    7.1420    0.0080   18.6780 C   0  0  0  0  0  0  0  0  0  0  0  0
    8.6270   -0.0820   21.4040 C   0  0  0  0  0  0  0  0  0  0  0  0
   12.9050   -0.8010   22.1900 C   0  0  0  0  0  0  0  0  0  0  0  0
    7.3940   -0.5170   21.0410 N   0  0  0  0  0  0  0  0  0  0  0  0
    9.2060    0.8460   20.8520 O   0  0  0  0  0  0  0  0  0  0  0  0
    8.8710   -2.9600   23.5900 C   0  0  0  0  0  0  0  0  0  0  0  0
   10.9780    0.3340   23.8010 C   0  0  0  0  0  0  0  0  0  0  0  0
    6.6470    0.0510   19.9840 C   0  0  1  0  0  0  0  0  0  0  0  0
   14.1200   -1.5130   21.1630 Cl  0  0  0  0  0  0  0  0  0  0  0  0
  5  2  1  0
  7  4  1  0
  9  1  1  0
 11  1  1  6
 11 10  1  0
 12  3  1  0
 13  6  1  0
 14  5  1  0
 14  8  1  0
 15 12  1  0
 15  6  1  0
 16 13  1  0
 16  3  1  0
 17  2  1  0
 18  1  1  0
 19 10  1  0
 19  4  1  0
 20 18  1  0
 21 18  1  0
 22  9  1  0
  6 22  1  6
 23 11  1  0
 23  7  1  0
 24 20  1  1
 24 17  1  0
 24  8  1  0
 25 19  1  0
M  END
$$$$

     RDKit          3D

 25 27  0  0  0  0  0  0  0  0999 V2000
    6.6490    0.5860   17.5980 N   0  0  0  0  0  0  0  0  0  0  0  0
    9.2760   -0.6990   22.4900 N   0  0  0  0  0  0  0  0  0  0  0  0
    7.4930   -0.5740   20.9800 N   0  0  0  0  0  0  0  0  0  0  0  0
    7.2240   -3.8410   24.9300 C   0  0  0  0  0  0  0  0  0  0  0  0
   13.3270    0.2030   23.0790 C   0  0  0  0  0  0  0  0  0  0  0  0
    9.2330    0.8870   20.8710 O   0  0  0  0  0  0  0  0  0  0  0  0
    9.5070   -4.5680   25.3120 C   0  0  0  0  0  0  0  0  0  0  0  0
   12.3560    0.8310   23.8470 C   0  0  0  0  0  0  0  0  0  0  0  0
    5.5260    1.2690   17.8570 C   0  0  0  0  0  0  0  0  0  0  0  0
    8.4720   -1.4950   23.4250 C   0  0  0  0  0  0  0  0  0  0  0  0
   11.6130   -1.1290   22.0220 C   0  0  0  0  0  0  0  0  0  0  0  0
   10.6470   -0.4910   22.7940 C   0  0  1  0  0  0  0  0  0  0  0  0
    6.8440   -4.4420   26.2650 C   0  0  0  0  0  0  0  0  0  0  0  0
    6.7580    0.0130   19.9320 C   0  0  2  0  0  0  0  0  0  0  0  0
    7.2410   -0.0320   18.6230 C   0  0  0  0  0  0  0  0  0  0  0  0
    9.0680   -5.1400   26.6360 C   0  0  0  0  0  0  0  0  0  0  0  0
    8.6790   -0.0690   21.3920 C   0  0  0  0  0  0  0  0  0  0  0  0
    5.5970    0.7360   20.1720 C   0  0  0  0  0  0  0  0  0  0  0  0
   12.9360   -0.7770   22.1850 C   0  0  0  0  0  0  0  0  0  0  0  0
    8.6450   -3.4300   24.9420 N   0  0  0  0  0  0  0  0  0  0  0  0
    7.6940   -5.5480   26.6040 O   0  0  0  0  0  0  0  0  0  0  0  0
    9.0510   -2.8660   23.6480 C   0  0  0  0  0  0  0  0  0  0  0  0
   11.0200    0.4820   23.7210 C   0  0  0  0  0  0  0  0  0  0  0  0
    4.9700    1.3790   19.1220 C   0  0  0  0  0  0  0  0  0  0  0  0
   14.1450   -1.6320   21.2730 Cl  0  0  0  0  0  0  0  0  0  0  0  0
  8  5  1  0
  9  1  1  0
 10  2  1  0
 12  2  1  6
 12 11  1  0
 13  4  1  0
 14  3  1  1
 15 14  1  0
 15  1  1  0
 16  7  1  0
 17  6  1  0
 17  3  1  0
 17  2  1  0
 18 14  1  0
 19 11  1  0
 19  5  1  0
 20  7  1  0
 20  4  1  0
 21 16  1  0
 21 13  1  0
 22 20  1  0
 22 10  1  0
 23 12  1  0
 23  8  1  0
 24 18  1  0
 24  9  1  0
 25 19  1  0
M  END
$$$$

     RDKit          3D

 21 22  0  0  0  0  0  0  0  0999 V2000
   14.5070   -0.4660   23.3950 F   0  0  0  0  0  0  0  0  0  0  0  0
   13.5970   -1.2720   22.9080 C   0  0  1  0  0  0  0  0  0  0  0  0
   13.8350   -1.3010   21.5890 F   0  0  0  0  0  0  0  0  0  0  0  0
   13.8620   -2.4860   23.4070 F   0  0  0  0  0  0  0  0  0  0  0  0
   12.2180   -0.8120   23.2420 C   0  0  2  0  0  0  0  0  0  0  0  0
   11.9880   -0.0200   24.3630 C   0  0  0  0  0  0  0  0  0  0  0  0
   10.6980    0.2990   24.7420 C   0  0  0  0  0  0  0  0  0  0  0  0
    9.6270   -0.1720   24.0010 C   0  0  0  0  0  0  0  0  0  0  0  0
   11.1380   -1.2620   22.4950 C   0  0  0  0  0  0  0  0  0  0  0  0
    9.8360   -0.9560   22.8720 C   0  0  0  0  0  0  0  0  0  0  0  0
    8.6750   -1.4860   22.0720 C   0  0  0  0  0  0  0  0  0  0  0  0
    8.1990   -0.4320   21.0950 C   0  0  0  0  0  0  0  0  0  0  0  0
    8.8460    0.5880   20.8730 O   0  0  0  0  0  0  0  0  0  0  0  0
    7.0230   -0.7180   20.5050 N   0  0  0  0  0  0  0  0  0  0  0  0
    6.4340    0.0270   19.4700 C   0  0  0  0  0  0  0  0  0  0  0  0
    5.2950    0.8080   19.7320 C   0  0  1  0  0  0  0  0  0  0  0  0
    4.7210    0.9430   21.1190 C   0  0  0  0  0  0  0  0  0  0  0  0
    6.9930    0.0420   18.1970 C   0  0  0  0  0  0  0  0  0  0  0  0
    6.4960    0.7760   17.1950 N   0  0  0  0  0  0  0  0  0  0  0  0
    5.4050    1.5140   17.4500 C   0  0  0  0  0  0  0  0  0  0  0  0
    4.7750    1.5460   18.6760 C   0  0  0  0  0  0  0  0  0  0  0  0
  2  1  1  1
  3  2  1  0
  4  2  1  0
  5  2  1  0
  5  6  1  1
  7  6  1  0
  8  7  1  0
  9  5  1  0
 10  8  1  0
 10  9  1  0
 11 10  1  0
 12 11  1  0
 13 12  1  0
 14 12  1  0
 15 14  1  0
 16 15  1  0
 16 17  1  1
 18 15  1  0
 19 18  1  0
 20 19  1  0
 21 20  1  0
 21 16  1  0
M  END
$$$$

     RDKit          3D

 18 19  0  0  0  0  0  0  0  0999 V2000
    8.6970    0.5120   21.2930 O   0  0  0  0  0  0  0  0  0  0  0  0
    7.9650   -0.4640   21.5200 C   0  0  0  0  0  0  0  0  0  0  0  0
    8.1590   -1.3800   22.7120 C   0  0  0  0  0  0  0  0  0  0  0  0
    9.6090   -1.2970   23.0910 C   0  0  1  0  0  0  0  0  0  0  0  0
   10.5770   -1.8000   22.2390 C   0  0  0  0  0  0  0  0  0  0  0  0
   11.9000   -1.4350   22.3800 C   0  0  0  0  0  0  0  0  0  0  0  0
   10.0170   -0.4920   24.1420 C   0  0  0  0  0  0  0  0  0  0  0  0
   11.3430   -0.1400   24.2880 C   0  0  0  0  0  0  0  0  0  0  0  0
   12.3010   -0.5810   23.3920 C   0  0  2  0  0  0  0  0  0  0  0  0
   13.7190   -0.1000   23.4790 C   0  0  0  0  0  0  0  0  0  0  0  0
    6.9110   -0.7990   20.7740 N   0  0  0  0  0  0  0  0  0  0  0  0
    6.3980   -0.0170   19.7300 C   0  0  0  0  0  0  0  0  0  0  0  0
    5.3010    0.8220   19.9610 C   0  0  1  0  0  0  0  0  0  0  0  0
    4.7530    1.0600   21.3450 C   0  0  0  0  0  0  0  0  0  0  0  0
    4.7740    1.4920   18.8690 C   0  0  0  0  0  0  0  0  0  0  0  0
    5.3710    1.3540   17.6350 C   0  0  0  0  0  0  0  0  0  0  0  0
    6.4490    0.5930   17.4180 N   0  0  0  0  0  0  0  0  0  0  0  0
    6.9430   -0.0860   18.4560 C   0  0  0  0  0  0  0  0  0  0  0  0
  2  1  1  0
  3  2  1  0
  4  3  1  6
  5  4  1  0
  6  5  1  0
  7  4  1  0
  8  7  1  0
  9  8  1  0
  9  6  1  0
  9 10  1  6
 11  2  1  0
 12 11  1  0
 13 12  1  0
 13 14  1  1
 15 13  1  0
 16 15  1  0
 17 16  1  0
 18 17  1  0
 18 12  1  0
M  END
$$$$

     RDKit          3D

 19 20  0  0  0  0  0  0  0  0999 V2000
   14.4980   -1.7120   20.4870 N   0  0  0  0  0  0  0  0  0  0  0  0
   13.7650   -1.3000   21.2580 C   0  0  0  0  0  0  0  0  0  0  0  0
   12.8060   -0.8090   22.2130 C   0  0  0  0  0  0  0  0  0  0  0  0
   13.1810    0.0030   23.2820 C   0  0  0  0  0  0  0  0  0  0  0  0
   12.3180    0.4450   24.2060 N   0  0  0  0  0  0  0  0  0  0  0  0
   11.0290    0.1060   24.0550 C   0  0  0  0  0  0  0  0  0  0  0  0
   11.4640   -1.1590   22.0960 C   0  0  0  0  0  0  0  0  0  0  0  0
   10.5410   -0.6720   23.0150 C   0  0  2  0  0  0  0  0  0  0  0  0
    9.0560   -0.8520   22.7980 C   0  0  0  0  0  0  0  0  0  0  0  0
    8.6250   -0.0590   21.5800 C   0  0  2  0  0  0  0  0  0  0  0  0
    9.4270    0.5990   20.9310 O   0  0  0  0  0  0  0  0  0  0  0  0
    7.3100    0.0540   21.3900 N   0  0  0  0  0  0  0  0  0  0  0  0
    6.6920    0.3530   20.1550 C   0  0  0  0  0  0  0  0  0  0  0  0
    5.3730    0.8120   20.1630 C   0  0  1  0  0  0  0  0  0  0  0  0
    4.6420    1.0950   21.4510 C   0  0  0  0  0  0  0  0  0  0  0  0
    7.3300    0.1620   18.9250 C   0  0  0  0  0  0  0  0  0  0  0  0
    6.7720    0.4720   17.7510 N   0  0  0  0  0  0  0  0  0  0  0  0
    5.5340    0.9780   17.7770 C   0  0  0  0  0  0  0  0  0  0  0  0
    4.8050    1.1470   18.9380 C   0  0  0  0  0  0  0  0  0  0  0  0
  2  1  1  0
  3  2  1  0
  4  3  1  0
  5  4  1  0
  6  5  1  0
  7  3  1  0
  8  7  1  0
  8  6  1  0
  8  9  1  6
 10  9  1  0
 10 11  1  1
 12 10  1  0
 13 12  1  0
 14 13  1  0
 14 15  1  1
 16 13  1  0
 17 16  1  0
 18 17  1  0
 19 14  1  0
 19 18  1  0
M  END
$$$$

     RDKit          3D

 23 25  0  0  0  0  0  0  0  0999 V2000
    9.2420   -0.6540   21.9980 N   0  0  0  0  0  0  0  0  0  0  0  0
   12.4430    4.2120   21.7230 N   0  0  0  0  0  0  0  0  0  0  0  0
    6.3430    0.6510   17.4220 N   0  0  0  0  0  0  0  0  0  0  0  0
   12.7850   -1.0280   22.9950 C   0  0  0  0  0  0  0  0  0  0  0  0
   12.1760    1.2950   23.1200 C   0  0  0  0  0  0  0  0  0  0  0  0
   12.6760    2.5330   23.4630 O   0  0  0  0  0  0  0  0  0  0  0  0
    5.2900    1.4080   17.7440 C   0  0  0  0  0  0  0  0  0  0  0  0
   11.4940   -1.3140   22.5710 C   0  0  0  0  0  0  0  0  0  0  0  0
    6.3520   -0.0700   19.7050 C   0  0  2  0  0  0  0  0  0  0  0  0
    7.1210   -0.6740   20.8590 C   0  0  0  0  0  0  0  0  0  0  0  0
    8.3910    0.0660   21.2350 C   0  0  0  0  0  0  0  0  0  0  0  0
   10.8880    1.0100   22.7040 C   0  0  0  0  0  0  0  0  0  0  0  0
   12.8510    4.8570   23.6540 C   0  0  0  0  0  0  0  0  0  0  0  0
    6.8530   -0.0850   18.4160 C   0  0  0  0  0  0  0  0  0  0  0  0
   12.0100    3.7300   23.0350 C   0  0  1  0  0  0  0  0  0  0  0  0
   13.0900    5.2870   22.2150 C   0  0  0  0  0  0  0  0  0  0  0  0
   13.8010   -2.1320   23.1690 C   0  0  0  0  0  0  0  0  0  0  0  0
    4.7250    1.5220   18.9510 N   0  0  0  0  0  0  0  0  0  0  0  0
    8.6060    1.2180   20.8710 O   0  0  0  0  0  0  0  0  0  0  0  0
   13.6450    6.2360   21.6620 O   0  0  0  0  0  0  0  0  0  0  0  0
    5.2780    0.7770   19.9150 C   0  0  0  0  0  0  0  0  0  0  0  0
   10.5440   -0.3080   22.4250 C   0  0  0  0  0  0  0  0  0  0  0  0
   13.1210    0.2920   23.2660 C   0  0  0  0  0  0  0  0  0  0  0  0
  6  5  1  0
  7  3  1  0
  8  4  1  0
  9 10  1  1
 11 10  1  0
 11  1  1  0
 12  5  1  0
 14  9  1  0
 14  3  1  0
 15  2  1  0
 15 13  1  0
 15  6  1  1
 16  2  1  0
 16 13  1  0
 17  4  1  0
 18  7  1  0
 19 11  1  0
 20 16  1  0
 21 18  1  0
 21  9  1  0
 22 12  1  0
 22  1  1  0
 22  8  1  0
 23  5  1  0
 23  4  1  0
M  END
$$$$

     RDKit          3D

 22 25  0  0  0  0  0  0  0  0999 V2000
    5.7560    0.6570   19.3560 N   0  0  0  0  0  0  0  0  0  0  0  0
    7.3400   -0.6010   20.6590 N   0  0  0  0  0  0  0  0  0  0  0  0
    6.7730    0.6540   17.4040 N   0  0  0  0  0  0  0  0  0  0  0  0
    5.3400    1.9860   21.4660 C   0  0  0  0  0  0  0  0  0  0  0  0
   12.8660    0.0450   23.4140 C   0  0  0  0  0  0  0  0  0  0  0  0
    8.9800    0.9140   21.0170 O   0  0  0  0  0  0  0  0  0  0  0  0
    6.9340   -0.0290   19.4690 C   0  0  0  0  0  0  0  0  0  0  0  0
   11.8850    0.6520   24.1800 C   0  0  0  0  0  0  0  0  0  0  0  0
    8.7000   -0.8280   22.6740 C   0  0  2  0  0  0  0  0  0  0  0  0
    7.7830   -0.2940   23.7920 C   0  0  0  0  0  0  0  0  0  0  0  0
    8.2770    1.0540   24.2560 C   0  0  0  0  0  0  0  0  0  0  0  0
    4.8420    1.0150   20.4560 C   0  0  1  0  0  0  0  0  0  0  0  0
   10.1690   -0.5600   22.9550 C   0  0  0  0  0  0  0  0  0  0  0  0
    5.7100    1.0430   18.0450 C   0  0  0  0  0  0  0  0  0  0  0  0
    4.2860    2.3940   20.4900 C   0  0  0  0  0  0  0  0  0  0  0  0
   11.1740   -1.1720   22.2060 C   0  0  0  0  0  0  0  0  0  0  0  0
   12.4980   -0.8640   22.4470 C   0  0  2  0  0  0  0  0  0  0  0  0
    7.5720   -0.0280   18.3120 N   0  0  0  0  0  0  0  0  0  0  0  0
    9.6390    0.9950   24.7530 O   0  0  0  0  0  0  0  0  0  0  0  0
    8.3730   -0.0890   21.3760 C   0  0  0  0  0  0  0  0  0  0  0  0
   10.5480    0.3500   23.9480 C   0  0  0  0  0  0  0  0  0  0  0  0
   13.7330   -1.6970   21.5500 Cl  0  0  0  0  0  0  0  0  0  0  0  0
  7  2  1  0
  7  1  1  0
  8  5  1  0
 10  9  1  0
 11 10  1  0
 12  4  1  0
 12  1  1  6
 13  9  1  0
 14  3  1  0
 14  1  1  0
 15 12  1  0
 15  4  1  0
 16 13  1  0
 17 16  1  0
 17  5  1  0
 18  7  1  0
 18  3  1  0
 19 11  1  0
 20  6  1  0
 20  2  1  0
  9 20  1  6
 21 19  1  0
 21 13  1  0
 21  8  1  0
 17 22  1  1
M  END
$$$$

     RDKit          3D

 21 22  0  0  0  0  0  0  0  0999 V2000
   14.0040   -1.9130   21.3910 Cl  0  0  0  0  0  0  0  0  0  0  0  0
   12.9070   -0.7560   22.0770 C   0  0  0  0  0  0  0  0  0  0  0  0
   13.3970    0.4460   22.5440 C   0  0  0  0  0  0  0  0  0  0  0  0
   12.5100    1.3530   23.1010 C   0  0  0  0  0  0  0  0  0  0  0  0
   11.1600    1.0450   23.1890 C   0  0  0  0  0  0  0  0  0  0  0  0
   11.5680   -1.0770   22.1580 C   0  0  0  0  0  0  0  0  0  0  0  0
   10.6760   -0.1720   22.7200 C   0  0  0  0  0  0  0  0  0  0  0  0
    9.1940   -0.5150   22.7640 C   0  0  1  0  0  0  0  0  0  0  0  0
    8.5560   -0.4290   24.1930 C   0  0  1  0  0  0  0  0  0  0  0  0
    8.8990    0.8610   24.9150 C   0  0  0  0  0  0  0  0  0  0  0  0
    7.0460   -0.6390   24.1730 C   0  0  0  0  0  0  0  0  0  0  0  0
    8.4570    0.2980   21.6990 C   0  0  1  0  0  0  0  0  0  0  0  0
    8.7820    1.4480   21.4260 O   0  0  0  0  0  0  0  0  0  0  0  0
    7.5030   -0.3760   21.0220 N   0  0  0  0  0  0  0  0  0  0  0  0
    6.7830    0.1590   19.9260 C   0  0  1  0  0  0  0  0  0  0  0  0
    5.6050    0.9040   20.1520 C   0  0  0  0  0  0  0  0  0  0  0  0
    5.0250    1.0880   21.5310 C   0  0  0  0  0  0  0  0  0  0  0  0
    4.9920    1.4790   19.0430 C   0  0  0  0  0  0  0  0  0  0  0  0
    5.5430    1.3020   17.7900 C   0  0  0  0  0  0  0  0  0  0  0  0
    6.6510    0.5920   17.5620 N   0  0  0  0  0  0  0  0  0  0  0  0
    7.2520    0.0300   18.6180 C   0  0  0  0  0  0  0  0  0  0  0  0
  2  1  1  0
  3  2  1  0
  4  3  1  0
  5  4  1  0
  6  2  1  0
  7  6  1  0
  7  5  1  0
  8  7  1  1
  9  8  1  0
  9 10  1  6
 11  9  1  0
 12  8  1  0
 12 13  1  6
 14 12  1  0
 15 14  1  1
 16 15  1  0
 17 16  1  0
 18 16  1  0
 19 18  1  0
 20 19  1  0
 21 20  1  0
 21 15  1  0
M  END
$$$$

     RDKit          3D

 20 21  0  0  0  0  0  0  0  0999 V2000
   13.9290   -1.6590   21.2300 Cl  0  0  0  0  0  0  0  0  0  0  0  0
   12.8070   -0.7850   22.2280 C   0  0  2  0  0  0  0  0  0  0  0  0
   13.2860    0.1330   23.1360 C   0  0  0  0  0  0  0  0  0  0  0  0
   12.3910    0.7360   24.0070 C   0  0  0  0  0  0  0  0  0  0  0  0
   11.0380    0.4440   23.9300 C   0  0  0  0  0  0  0  0  0  0  0  0
   11.4610   -1.0750   22.1290 C   0  0  0  0  0  0  0  0  0  0  0  0
   10.5560   -0.4370   22.9710 C   0  0  2  0  0  0  0  0  0  0  0  0
    9.0660   -0.5960   22.7290 C   0  0  2  0  0  0  0  0  0  0  0  0
    8.6270   -2.0680   22.7030 C   0  0  0  0  0  0  0  0  0  0  0  0
    8.6960   -2.7220   24.0660 C   0  0  0  0  0  0  0  0  0  0  0  0
    8.6890    0.1940   21.4710 C   0  0  0  0  0  0  0  0  0  0  0  0
    9.1750    1.2950   21.2310 O   0  0  0  0  0  0  0  0  0  0  0  0
    7.8120   -0.4090   20.6370 N   0  0  0  0  0  0  0  0  0  0  0  0
    6.7250   -0.0100   19.8370 C   0  0  1  0  0  0  0  0  0  0  0  0
    5.7110    0.8560   20.3020 C   0  0  2  0  0  0  0  0  0  0  0  0
    5.3600    0.9700   21.7640 C   0  0  0  0  0  0  0  0  0  0  0  0
    4.9610    1.5290   19.3430 C   0  0  0  0  0  0  0  0  0  0  0  0
    5.1670    1.3850   18.0280 N   0  0  0  0  0  0  0  0  0  0  0  0
    6.1420    0.5370   17.5860 N   0  0  0  0  0  0  0  0  0  0  0  0
    6.8590   -0.1380   18.4580 C   0  0  0  0  0  0  0  0  0  0  0  0
  2  1  1  1
  3  2  1  0
  4  3  1  0
  5  4  1  0
  6  2  1  0
  7  6  1  6
  7  5  1  0
  8  7  1  0
  8  9  1  6
 10  9  1  0
 11  8  1  0
 12 11  1  0
 13 11  1  0
 14 13  1  6
 15 14  1  0
 15 16  1  6
 17 15  1  0
 18 17  1  0
 19 18  1  0
 20 19  1  0
 20 14  1  0
M  END
$$$$

     RDKit          3D

 19 20  0  0  0  0  0  0  0  0999 V2000
   13.6310   -1.9280   21.3350 Cl  0  0  0  0  0  0  0  0  0  0  0  0
   12.4700   -1.0550   22.2980 C   0  0  0  0  0  0  0  0  0  0  0  0
   12.9150   -0.1170   23.2050 C   0  0  0  0  0  0  0  0  0  0  0  0
   11.9870    0.5060   24.0250 C   0  0  0  0  0  0  0  0  0  0  0  0
   10.6380    0.2110   23.9020 C   0  0  0  0  0  0  0  0  0  0  0  0
   11.1280   -1.3530   22.1590 C   0  0  0  0  0  0  0  0  0  0  0  0
   10.1920   -0.7000   22.9550 C   0  0  2  0  0  0  0  0  0  0  0  0
    8.7150   -0.9090   22.7140 C   0  0  0  0  0  0  0  0  0  0  0  0
    8.2170   -0.0950   21.5350 C   0  0  0  0  0  0  0  0  0  0  0  0
    8.8600    0.8500   21.0820 O   0  0  0  0  0  0  0  0  0  0  0  0
    7.0270   -0.5010   21.0310 N   0  0  0  0  0  0  0  0  0  0  0  0
    6.3610    0.1480   19.9460 C   0  0  0  0  0  0  0  0  0  0  0  0
    5.3180    1.0400   20.2200 C   0  0  0  0  0  0  0  0  0  0  0  0
    4.8660    1.3370   21.6270 C   0  0  0  0  0  0  0  0  0  0  0  0
    6.7660   -0.0810   18.6160 C   0  0  0  0  0  0  0  0  0  0  0  0
    7.8820   -1.0140   18.2540 C   0  0  0  0  0  0  0  0  0  0  0  0
    6.1600    0.5470   17.6010 N   0  0  0  0  0  0  0  0  0  0  0  0
    5.1570    1.3940   17.8690 C   0  0  0  0  0  0  0  0  0  0  0  0
    4.7120    1.6630   19.1410 C   0  0  0  0  0  0  0  0  0  0  0  0
  2  1  1  0
  3  2  1  0
  4  3  1  0
  5  4  1  0
  6  2  1  0
  7  5  1  0
  7  6  1  0
  7  8  1  6
  9  8  1  0
 10  9  1  0
 11  9  1  0
 12 11  1  0
 13 12  1  0
 14 13  1  0
 15 12  1  0
 16 15  1  0
 17 15  1  0
 18 17  1  0
 19 18  1  0
 19 13  1  0
M  END
$$$$

     RDKit          3D

 21 23  0  0  0  0  0  0  0  0999 V2000
   13.9360   -1.8550   21.2690 Cl  0  0  0  0  0  0  0  0  0  0  0  0
   12.7880   -1.0140   22.2560 C   0  0  0  0  0  0  0  0  0  0  0  0
   13.2350   -0.0210   23.1120 C   0  0  0  0  0  0  0  0  0  0  0  0
   12.3230    0.6700   23.8890 C   0  0  0  0  0  0  0  0  0  0  0  0
   11.4560   -1.3460   22.1550 C   0  0  0  0  0  0  0  0  0  0  0  0
   10.5390   -0.6330   22.9100 C   0  0  1  0  0  0  0  0  0  0  0  0
   10.9830    0.3640   23.7560 C   0  0  2  0  0  0  0  0  0  0  0  0
    9.9190    1.0320   24.3250 O   0  0  0  0  0  0  0  0  0  0  0  0
    8.7330    0.2040   24.1510 C   0  0  0  0  0  0  0  0  0  0  0  0
    9.0340   -0.6560   22.9250 C   0  0  1  0  0  0  0  0  0  0  0  0
    8.5880    0.0400   21.6410 C   0  0  0  0  0  0  0  0  0  0  0  0
    9.1240    1.0680   21.2300 O   0  0  0  0  0  0  0  0  0  0  0  0
    7.5440   -0.5410   21.0450 N   0  0  0  0  0  0  0  0  0  0  0  0
    6.8400    0.0470   19.9830 C   0  0  0  0  0  0  0  0  0  0  0  0
    5.6530    0.7400   20.2520 C   0  0  0  0  0  0  0  0  0  0  0  0
    5.1480    0.9240   21.6640 C   0  0  0  0  0  0  0  0  0  0  0  0
    4.0120    1.7780   21.7470 O   0  0  0  0  0  0  0  0  0  0  0  0
    7.3000   -0.0210   18.6730 C   0  0  0  0  0  0  0  0  0  0  0  0
    6.6480    0.5290   17.6480 N   0  0  0  0  0  0  0  0  0  0  0  0
    5.5060    1.1740   17.9110 C   0  0  0  0  0  0  0  0  0  0  0  0
    4.9740    1.2970   19.1780 C   0  0  0  0  0  0  0  0  0  0  0  0
  2  1  1  0
  3  2  1  0
  4  3  1  0
  5  2  1  0
  6  5  1  6
  7  6  1  0
  7  4  1  6
  8  7  1  0
  9  8  1  0
 10  9  1  0
 10  6  1  0
 10 11  1  6
 12 11  1  0
 13 11  1  0
 14 13  1  0
 15 14  1  0
 16 15  1  0
 17 16  1  0
 18 14  1  0
 19 18  1  0
 20 19  1  0
 21 20  1  0
 21 15  1  0
M  END
$$$$

     RDKit          3D

 18 19  0  0  0  0  0  0  0  0999 V2000
    9.3730    0.6160   21.0330 O   0  0  0  0  0  0  0  0  0  0  0  0
    8.7720   -0.4050   21.3620 C   0  0  0  0  0  0  0  0  0  0  0  0
    7.5380   -0.7290   20.9270 N   0  0  0  0  0  0  0  0  0  0  0  0
    6.8290   -0.0570   19.9110 C   0  0  0  0  0  0  0  0  0  0  0  0
    7.2570   -0.0940   18.5830 C   0  0  0  0  0  0  0  0  0  0  0  0
    6.6200    0.5330   17.5900 N   0  0  0  0  0  0  0  0  0  0  0  0
    5.5150    1.2190   17.9030 C   0  0  0  0  0  0  0  0  0  0  0  0
    5.0220    1.3250   19.1880 C   0  0  0  0  0  0  0  0  0  0  0  0
    5.6780    0.6850   20.2310 C   0  0  0  0  0  0  0  0  0  0  0  0
    5.1920    0.8350   21.6500 C   0  0  0  0  0  0  0  0  0  0  0  0
    9.3740   -1.4160   22.3160 C   0  0  0  0  0  0  0  0  0  0  0  0
   10.7320   -0.9620   22.7950 C   0  0  0  0  0  0  0  0  0  0  0  0
   10.8440   -0.1860   23.9410 C   0  0  0  0  0  0  0  0  0  0  0  0
   12.0840    0.2610   24.3670 C   0  0  0  0  0  0  0  0  0  0  0  0
   12.1590    0.9790   25.5200 O   0  0  0  0  0  0  0  0  0  0  0  0
   13.2280   -0.0440   23.6430 C   0  0  0  0  0  0  0  0  0  0  0  0
   13.1200   -0.8250   22.5040 C   0  0  0  0  0  0  0  0  0  0  0  0
   11.8820   -1.2860   22.0900 C   0  0  0  0  0  0  0  0  0  0  0  0
  2  1  1  0
  3  2  1  0
  4  3  1  0
  5  4  1  0
  6  5  1  0
  7  6  1  0
  8  7  1  0
  9  8  1  0
  9  4  1  0
 10  9  1  0
 11  2  1  0
 12 11  1  0
 13 12  1  0
 14 13  1  0
 15 14  1  0
 16 14  1  0
 17 16  1  0
 18 12  1  0
 18 17  1  0
M  END
$$$$

     RDKit          3D

 22 24  0  0  0  0  0  0  0  0999 V2000
    6.4250    0.6820   17.4590 N   0  0  0  0  0  0  0  0  0  0  0  0
   13.0890    4.0000   21.8400 N   0  0  0  0  0  0  0  0  0  0  0  0
    7.3750   -0.6220   20.8750 C   0  0  0  0  0  0  0  0  0  0  0  0
   12.4420    1.1980   23.1370 C   0  0  0  0  0  0  0  0  0  0  0  0
   12.7090    2.4400   23.6740 O   0  0  0  0  0  0  0  0  0  0  0  0
   11.8970   -1.3150   22.1100 C   0  0  0  0  0  0  0  0  0  0  0  0
    6.6200    0.1070   19.7870 C   0  0  0  0  0  0  0  0  0  0  0  0
    7.0370    0.0460   18.4680 C   0  0  0  0  0  0  0  0  0  0  0  0
    5.3440    1.4190   17.7620 C   0  0  0  0  0  0  0  0  0  0  0  0
    4.8480    1.5480   19.0470 C   0  0  0  0  0  0  0  0  0  0  0  0
   13.4820    0.3080   22.9180 C   0  0  0  0  0  0  0  0  0  0  0  0
   12.5010    4.8340   23.6480 C   0  0  0  0  0  0  0  0  0  0  0  0
   13.2020   -0.9500   22.4030 C   0  0  0  0  0  0  0  0  0  0  0  0
   12.1690    3.5340   22.9090 C   0  0  1  0  0  0  0  0  0  0  0  0
   13.1480    5.2520   22.3370 C   0  0  0  0  0  0  0  0  0  0  0  0
    8.6610    0.0770   21.2710 C   0  0  0  0  0  0  0  0  0  0  0  0
    9.5470   -0.7210   21.9070 N   0  0  0  0  0  0  0  0  0  0  0  0
    8.8610    1.2630   21.0150 O   0  0  0  0  0  0  0  0  0  0  0  0
   13.5440    6.3120   21.8480 O   0  0  0  0  0  0  0  0  0  0  0  0
   10.8630   -0.4090   22.3130 C   0  0  2  0  0  0  0  0  0  0  0  0
    5.4990    0.8780   20.0680 C   0  0  0  0  0  0  0  0  0  0  0  0
   11.1330    0.8480   22.8430 C   0  0  0  0  0  0  0  0  0  0  0  0
  5  4  1  0
  7  3  1  0
  8  7  1  0
  8  1  1  0
  9  1  1  0
 10  9  1  0
 11  4  1  0
 13 11  1  0
 13  6  1  0
 14 12  1  0
 14  5  1  1
 14  2  1  0
 15 12  1  0
 15  2  1  0
 16  3  1  0
 17 16  1  0
 18 16  1  0
 19 15  1  0
 20 17  1  6
 20  6  1  0
 21 10  1  0
 21  7  1  0
 22 20  1  0
 22  4  1  0
M  END
$$$$

     RDKit          3D

 23 25  0  0  0  0  0  0  0  0999 V2000
   14.1630   -1.5720   21.0790 Cl  0  0  0  0  0  0  0  0  0  0  0  0
   12.8980   -0.9160   22.0760 C   0  0  0  0  0  0  0  0  0  0  0  0
   13.2000    0.0790   22.9840 C   0  0  0  0  0  0  0  0  0  0  0  0
   12.1860    0.5740   23.7870 C   0  0  0  0  0  0  0  0  0  0  0  0
   10.8920    0.0920   23.6590 C   0  0  0  0  0  0  0  0  0  0  0  0
   11.6150   -1.4050   21.9350 C   0  0  0  0  0  0  0  0  0  0  0  0
   10.5890   -0.8820   22.7140 C   0  0  2  0  0  0  0  0  0  0  0  0
    9.1440   -1.2930   22.4550 C   0  0  1  0  0  0  0  0  0  0  0  0
    8.3580   -1.4460   23.7620 C   0  0  0  0  0  0  0  0  0  0  0  0
    8.5440   -0.2780   21.4760 C   0  0  0  0  0  0  0  0  0  0  0  0
    9.1210    0.7730   21.2020 O   0  0  0  0  0  0  0  0  0  0  0  0
    7.3600   -0.6420   20.9150 N   0  0  0  0  0  0  0  0  0  0  0  0
    6.6530    0.0640   19.9130 C   0  0  0  0  0  0  0  0  0  0  0  0
    5.5310    0.8520   20.2210 C   0  0  0  0  0  0  0  0  0  0  0  0
    4.8550    1.4990   19.1960 C   0  0  0  0  0  0  0  0  0  0  0  0
    5.3360    1.3410   17.9090 C   0  0  0  0  0  0  0  0  0  0  0  0
    6.4080    0.6070   17.5910 N   0  0  0  0  0  0  0  0  0  0  0  0
    7.0490   -0.0180   18.5820 C   0  0  0  0  0  0  0  0  0  0  0  0
    5.0680    1.0360   21.5620 N   0  0  0  0  0  0  0  0  0  0  0  0
    3.7350    1.1650   21.8130 N   0  0  0  0  0  0  0  0  0  0  0  0
    3.6760    1.4270   23.1120 C   0  0  0  0  0  0  0  0  0  0  0  0
    4.9370    1.4620   23.7040 C   0  0  0  0  0  0  0  0  0  0  0  0
    5.8110    1.2020   22.6870 C   0  0  0  0  0  0  0  0  0  0  0  0
  2  1  1  0
  3  2  1  0
  4  3  1  0
  5  4  1  0
  6  2  1  0
  7  5  1  6
  7  6  1  0
  8  7  1  0
  8  9  1  1
 10  8  1  0
 11 10  1  0
 12 10  1  0
 13 12  1  0
 14 13  1  0
 15 14  1  0
 16 15  1  0
 17 16  1  0
 18 17  1  0
 18 13  1  0
 19 14  1  0
 20 19  1  0
 21 20  1  0
 22 21  1  0
 23 19  1  0
 23 22  1  0
M  END
$$$$

     RDKit          3D

 23 25  0  0  0  0  0  0  0  0999 V2000
    9.5280   -0.5630   21.8790 N   0  0  0  0  0  0  0  0  0  0  0  0
   12.2480    4.3910   21.8040 N   0  0  0  0  0  0  0  0  0  0  0  0
    4.8550    1.5630   19.0070 N   0  0  0  0  0  0  0  0  0  0  0  0
   11.8280   -1.2180   22.1970 C   0  0  0  0  0  0  0  0  0  0  0  0
   12.0950    3.7570   23.1110 C   0  0  1  0  0  0  0  0  0  0  0  0
   12.9610    2.6180   23.3050 O   0  0  0  0  0  0  0  0  0  0  0  0
    5.4250    0.8390   19.9780 C   0  0  0  0  0  0  0  0  0  0  0  0
   10.8520   -0.2270   22.2490 C   0  0  0  0  0  0  0  0  0  0  0  0
    7.0270    0.0080   18.4850 C   0  0  0  0  0  0  0  0  0  0  0  0
    6.5230    0.0180   19.7740 C   0  0  1  0  0  0  0  0  0  0  0  0
    7.3160   -0.5390   20.9340 C   0  0  0  0  0  0  0  0  0  0  0  0
   12.5170    1.3680   22.9270 C   0  0  0  0  0  0  0  0  0  0  0  0
   12.8210    5.5060   22.2940 C   0  0  0  0  0  0  0  0  0  0  0  0
   11.1940    1.0690   22.6250 C   0  0  0  0  0  0  0  0  0  0  0  0
   14.0680   -1.8450   22.4700 F   0  0  0  0  0  0  0  0  0  0  0  0
   12.8110    4.9680   23.7190 C   0  0  0  0  0  0  0  0  0  0  0  0
   13.5050    0.3970   22.8700 C   0  0  0  0  0  0  0  0  0  0  0  0
   13.1210   -0.8710   22.5030 C   0  0  0  0  0  0  0  0  0  0  0  0
    6.4910    0.7110   17.4820 N   0  0  0  0  0  0  0  0  0  0  0  0
    8.7880    1.3620   20.8950 O   0  0  0  0  0  0  0  0  0  0  0  0
   13.2000    6.5410   21.7470 O   0  0  0  0  0  0  0  0  0  0  0  0
    5.4200    1.4450   17.8030 C   0  0  0  0  0  0  0  0  0  0  0  0
    8.6100    0.1930   21.2310 C   0  0  0  0  0  0  0  0  0  0  0  0
  5  2  1  0
  5  6  1  6
  7  3  1  0
  8  1  1  0
  8  4  1  0
 10  7  1  0
 10  9  1  0
 10 11  1  1
 12  6  1  0
 13  2  1  0
 14  8  1  0
 14 12  1  0
 16  5  1  0
 16 13  1  0
 17 12  1  0
 18 17  1  0
 18 15  1  0
 18  4  1  0
 19  9  1  0
 21 13  1  0
 22  3  1  0
 22 19  1  0
 23 20  1  0
 23 11  1  0
 23  1  1  0
M  END
$$$$

     RDKit          3D

 20 22  0  0  0  0  0  0  0  0999 V2000
   14.1250   -1.4150   21.2370 Cl  0  0  0  0  0  0  0  0  0  0  0  0
   12.8910   -0.7350   22.2580 C   0  0  0  0  0  0  0  0  0  0  0  0
   13.2170    0.2910   23.1210 C   0  0  0  0  0  0  0  0  0  0  0  0
   12.2470    0.7580   23.9950 C   0  0  0  0  0  0  0  0  0  0  0  0
   10.9720    0.2180   23.9730 C   0  0  0  0  0  0  0  0  0  0  0  0
   11.6200   -1.2670   22.2090 C   0  0  0  0  0  0  0  0  0  0  0  0
   10.6340   -0.7670   23.0520 C   0  0  2  0  0  0  0  0  0  0  0  0
    9.1710   -1.1170   22.7980 C   0  0  2  0  0  0  0  0  0  0  0  0
    8.2020   -1.4510   23.9290 C   0  0  0  0  0  0  0  0  0  0  0  0
    8.6310   -2.5300   22.9970 C   0  0  0  0  0  0  0  0  0  0  0  0
    8.5690   -0.2990   21.6390 C   0  0  0  0  0  0  0  0  0  0  0  0
    9.0380    0.7900   21.3370 O   0  0  0  0  0  0  0  0  0  0  0  0
    7.5150   -0.8280   20.9890 N   0  0  0  0  0  0  0  0  0  0  0  0
    6.7950   -0.1360   19.9880 C   0  0  0  0  0  0  0  0  0  0  0  0
    5.6230    0.5650   20.3240 C   0  0  0  0  0  0  0  0  0  0  0  0
    5.0930    0.6050   21.7340 C   0  0  0  0  0  0  0  0  0  0  0  0
    7.2480   -0.0860   18.6710 C   0  0  0  0  0  0  0  0  0  0  0  0
    6.6340    0.6010   17.7050 N   0  0  0  0  0  0  0  0  0  0  0  0
    5.5120    1.2550   18.0330 C   0  0  0  0  0  0  0  0  0  0  0  0
    4.9800    1.2610   19.3060 C   0  0  0  0  0  0  0  0  0  0  0  0
  2  1  1  0
  3  2  1  0
  4  3  1  0
  5  4  1  0
  6  2  1  0
  7  6  1  6
  7  5  1  0
  8  7  1  0
  9  8  1  0
 10  9  1  0
 10  8  1  0
  8 11  1  6
 12 11  1  0
 13 11  1  0
 14 13  1  0
 15 14  1  0
 16 15  1  0
 17 14  1  0
 18 17  1  0
 19 18  1  0
 20 19  1  0
 20 15  1  0
M  END
$$$$

     RDKit          3D

 21 22  0  0  0  0  0  0  0  0999 V2000
   14.0370   -1.4210   21.1730 Cl  0  0  0  0  0  0  0  0  0  0  0  0
   12.9080   -0.6030   22.2190 C   0  0  0  0  0  0  0  0  0  0  0  0
   13.3740    0.3610   23.0890 C   0  0  0  0  0  0  0  0  0  0  0  0
   12.4850    0.9370   23.9820 C   0  0  0  0  0  0  0  0  0  0  0  0
   11.1500    0.5630   23.9790 C   0  0  0  0  0  0  0  0  0  0  0  0
   11.5740   -0.9700   22.1880 C   0  0  0  0  0  0  0  0  0  0  0  0
   10.6750   -0.3710   23.0670 C   0  0  2  0  0  0  0  0  0  0  0  0
    9.1740   -0.5930   22.9170 C   0  0  2  0  0  0  0  0  0  0  0  0
    8.7180   -1.9780   23.2140 N   0  0  0  0  0  0  0  0  0  0  0  0
    9.5970   -2.7370   24.1070 C   0  0  0  0  0  0  0  0  0  0  0  0
    7.3620   -1.9850   23.7600 C   0  0  0  0  0  0  0  0  0  0  0  0
    8.6140    0.0360   21.6280 C   0  0  0  0  0  0  0  0  0  0  0  0
    9.1160    1.0560   21.1720 O   0  0  0  0  0  0  0  0  0  0  0  0
    7.5410   -0.5760   21.0710 N   0  0  0  0  0  0  0  0  0  0  0  0
    6.7620   -0.0460   20.0160 C   0  0  1  0  0  0  0  0  0  0  0  0
    5.5580    0.6300   20.3050 C   0  0  0  0  0  0  0  0  0  0  0  0
    5.0000    0.7050   21.7030 C   0  0  0  0  0  0  0  0  0  0  0  0
    4.9000    1.2450   19.2450 C   0  0  0  0  0  0  0  0  0  0  0  0
    5.4370    1.1780   17.9750 C   0  0  0  0  0  0  0  0  0  0  0  0
    6.5750    0.5320   17.6870 N   0  0  0  0  0  0  0  0  0  0  0  0
    7.2060   -0.0760   18.6950 C   0  0  0  0  0  0  0  0  0  0  0  0
  2  1  1  0
  3  2  1  0
  4  3  1  0
  5  4  1  0
  6  2  1  0
  7  6  1  6
  7  5  1  0
  8  7  1  0
  9  8  1  0
 10  9  1  0
 11  9  1  0
  8 12  1  6
 13 12  1  0
 14 12  1  0
 15 14  1  1
 16 15  1  0
 17 16  1  0
 18 16  1  0
 19 18  1  0
 20 19  1  0
 21 20  1  0
 21 15  1  0
M  END
$$$$

     RDKit          3D

 20 21  0  0  0  0  0  0  0  0999 V2000
    8.7850   -2.2230   22.4770 F   0  0  0  0  0  0  0  0  0  0  0  0
   10.9030    0.2220   23.9380 C   0  0  0  0  0  0  0  0  0  0  0  0
    6.4810    0.6070   17.5530 N   0  0  0  0  0  0  0  0  0  0  0  0
   12.7570   -1.0050   22.3270 C   0  0  0  0  0  0  0  0  0  0  0  0
    5.5100    0.8440   20.1760 C   0  0  0  0  0  0  0  0  0  0  0  0
   13.1900   -0.0910   23.2670 C   0  0  0  0  0  0  0  0  0  0  0  0
    5.0020    1.0270   21.5840 C   0  0  0  0  0  0  0  0  0  0  0  0
   10.4760   -0.6710   22.9620 C   0  0  1  0  0  0  0  0  0  0  0  0
    4.8890    1.4870   19.1100 C   0  0  0  0  0  0  0  0  0  0  0  0
    8.4930   -0.0930   21.4930 C   0  0  0  0  0  0  0  0  0  0  0  0
    7.3550   -0.5600   20.9400 N   0  0  0  0  0  0  0  0  0  0  0  0
    9.0970    0.9010   21.1160 O   0  0  0  0  0  0  0  0  0  0  0  0
    6.6420    0.0630   19.8890 C   0  0  2  0  0  0  0  0  0  0  0  0
    9.0100   -0.9000   22.7050 C   0  0  1  0  0  0  0  0  0  0  0  0
    7.0790   -0.0250   18.5690 C   0  0  0  0  0  0  0  0  0  0  0  0
   12.2510    0.5110   24.0900 C   0  0  0  0  0  0  0  0  0  0  0  0
   11.4220   -1.3090   22.1690 C   0  0  0  0  0  0  0  0  0  0  0  0
    5.4000    1.3440   17.8360 C   0  0  0  0  0  0  0  0  0  0  0  0
    8.2550   -0.5820   23.7960 F   0  0  0  0  0  0  0  0  0  0  0  0
   13.9250   -1.8130   21.3220 Cl  0  0  0  0  0  0  0  0  0  0  0  0
  6  4  1  0
  7  5  1  0
  8  2  1  6
  9  5  1  0
 11 10  1  0
 12 10  1  0
 13 11  1  1
 13  5  1  0
 14 10  1  0
 14  8  1  0
 14  1  1  6
 15 13  1  0
 15  3  1  0
 16  6  1  0
 16  2  1  0
 17  8  1  0
 17  4  1  0
 18  9  1  0
 18  3  1  0
 19 14  1  0
 20  4  1  0
M  END
$$$$

     RDKit          3D

 18 19  0  0  0  0  0  0  0  0999 V2000
   11.0670    0.0910   23.8470 C   0  0  0  0  0  0  0  0  0  0  0  0
   13.9060   -1.5900   21.4260 F   0  0  0  0  0  0  0  0  0  0  0  0
    6.6120    0.5380   17.6010 N   0  0  0  0  0  0  0  0  0  0  0  0
   12.9620   -1.0170   22.2300 C   0  0  0  0  0  0  0  0  0  0  0  0
    5.6150    0.8140   20.2140 C   0  0  1  0  0  0  0  0  0  0  0  0
   13.3730   -0.1440   23.2050 C   0  0  0  0  0  0  0  0  0  0  0  0
    5.1270    1.0640   21.6180 C   0  0  0  0  0  0  0  0  0  0  0  0
   10.6740   -0.7820   22.8400 C   0  0  1  0  0  0  0  0  0  0  0  0
    4.9680    1.3870   19.1270 C   0  0  0  0  0  0  0  0  0  0  0  0
    8.6860   -0.1940   21.4560 C   0  0  0  0  0  0  0  0  0  0  0  0
    7.4690   -0.5500   21.0130 N   0  0  0  0  0  0  0  0  0  0  0  0
    9.3170    0.7690   21.0220 O   0  0  0  0  0  0  0  0  0  0  0  0
    6.7770    0.0690   19.9500 C   0  0  0  0  0  0  0  0  0  0  0  0
    9.2110   -1.0600   22.5840 C   0  0  0  0  0  0  0  0  0  0  0  0
    7.2300   -0.0400   18.6360 C   0  0  0  0  0  0  0  0  0  0  0  0
   12.4060    0.4010   24.0340 C   0  0  0  0  0  0  0  0  0  0  0  0
   11.6470   -1.3550   22.0280 C   0  0  0  0  0  0  0  0  0  0  0  0
    5.4910    1.2270   17.8580 C   0  0  0  0  0  0  0  0  0  0  0  0
  4  2  1  0
  6  4  1  0
  5  7  1  1
  8  1  1  0
  9  5  1  0
 11 10  1  0
 12 10  1  0
 13 11  1  0
 13  5  1  0
 14 10  1  0
  8 14  1  6
 15 13  1  0
 15  3  1  0
 16  6  1  0
 16  1  1  0
 17  8  1  0
 17  4  1  0
 18  9  1  0
 18  3  1  0
M  END
$$$$

     RDKit          3D

 20 21  0  0  0  0  0  0  0  0999 V2000
    7.7930   -2.6210   20.9380 O   0  0  0  0  0  0  0  0  0  0  0  0
    7.9450   -1.6940   21.7240 C   0  0  2  0  0  0  0  0  0  0  0  0
    8.5750   -1.8970   23.1030 C   0  0  2  0  0  0  0  0  0  0  0  0
    9.9640   -1.2710   23.1460 C   0  0  1  0  0  0  0  0  0  0  0  0
   10.9210   -1.5890   22.1900 C   0  0  0  0  0  0  0  0  0  0  0  0
   12.1500   -0.9430   22.1740 C   0  0  0  0  0  0  0  0  0  0  0  0
   12.4370    0.0240   23.1170 C   0  0  0  0  0  0  0  0  0  0  0  0
   11.5060    0.3270   24.0920 C   0  0  0  0  0  0  0  0  0  0  0  0
   10.2770   -0.3160   24.1060 C   0  0  0  0  0  0  0  0  0  0  0  0
    8.6050   -3.3960   23.4380 C   0  0  0  0  0  0  0  0  0  0  0  0
    8.9530   -3.7080   24.8800 C   0  0  0  0  0  0  0  0  0  0  0  0
    8.8570   -5.1460   25.1310 N   0  0  0  0  0  0  0  0  0  0  0  0
    9.7700   -5.5520   26.1980 C   0  0  0  0  0  0  0  0  0  0  0  0
    7.4410   -0.4640   21.5110 N   0  0  0  0  0  0  0  0  0  0  0  0
    7.0460    0.1250   20.2860 C   0  0  1  0  0  0  0  0  0  0  0  0
    7.4820   -0.2370   19.0100 C   0  0  0  0  0  0  0  0  0  0  0  0
    6.9180    0.2110   17.8830 N   0  0  0  0  0  0  0  0  0  0  0  0
    5.8710    1.0360   18.0030 C   0  0  0  0  0  0  0  0  0  0  0  0
    5.3630    1.4500   19.2180 C   0  0  0  0  0  0  0  0  0  0  0  0
    5.9670    0.9960   20.3740 C   0  0  0  0  0  0  0  0  0  0  0  0
  2  1  1  1
  3  2  1  0
  4  3  1  0
  4  5  1  6
  6  5  1  0
  7  6  1  0
  8  7  1  0
  9  4  1  0
  9  8  1  0
  3 10  1  6
 11 10  1  0
 12 11  1  0
 13 12  1  0
 14  2  1  0
 15 14  1  1
 16 15  1  0
 17 16  1  0
 18 17  1  0
 19 18  1  0
 20 19  1  0
 20 15  1  0
M  END
$$$$

     RDKit          3D

 20 21  0  0  0  0  0  0  0  0999 V2000
   14.0680   -1.5830   21.0150 Cl  0  0  0  0  0  0  0  0  0  0  0  0
   13.0140   -0.6690   22.0570 C   0  0  2  0  0  0  0  0  0  0  0  0
   13.5590    0.2760   22.9050 C   0  0  0  0  0  0  0  0  0  0  0  0
   12.7280    0.9030   23.8200 C   0  0  0  0  0  0  0  0  0  0  0  0
   11.3760    0.6000   23.8590 C   0  0  0  0  0  0  0  0  0  0  0  0
   11.6660   -0.9610   22.0610 C   0  0  0  0  0  0  0  0  0  0  0  0
   10.8260   -0.3190   22.9680 C   0  0  2  0  0  0  0  0  0  0  0  0
    9.3140   -0.5940   22.9240 C   0  0  1  0  0  0  0  0  0  0  0  0
    9.0740   -2.1140   22.9660 C   0  0  0  0  0  0  0  0  0  0  0  0
    8.5670    0.0320   24.1160 C   0  0  0  0  0  0  0  0  0  0  0  0
    8.7280    0.0430   21.6460 C   0  0  0  0  0  0  0  0  0  0  0  0
    9.2090    1.0690   21.1890 O   0  0  0  0  0  0  0  0  0  0  0  0
    7.6470   -0.5650   21.1050 N   0  0  0  0  0  0  0  0  0  0  0  0
    6.9100   -0.0470   20.0150 C   0  0  1  0  0  0  0  0  0  0  0  0
    5.6980    0.6250   20.2560 C   0  0  1  0  0  0  0  0  0  0  0  0
    5.1450    0.8020   21.6460 C   0  0  0  0  0  0  0  0  0  0  0  0
    7.3920   -0.1050   18.7090 C   0  0  0  0  0  0  0  0  0  0  0  0
    6.7830    0.4750   17.6700 N   0  0  0  0  0  0  0  0  0  0  0  0
    5.6310    1.1060   17.9100 C   0  0  0  0  0  0  0  0  0  0  0  0
    5.0550    1.1940   19.1610 C   0  0  0  0  0  0  0  0  0  0  0  0
  2  1  1  1
  3  2  1  0
  4  3  1  0
  5  4  1  0
  6  2  1  0
  7  6  1  6
  7  5  1  0
  8  7  1  0
  8  9  1  6
 10  8  1  0
 11  8  1  0
 12 11  1  0
 13 11  1  0
 14 13  1  1
 15 14  1  0
 15 16  1  1
 17 14  1  0
 18 17  1  0
 19 18  1  0
 20 19  1  0
 20 15  1  0
M  END
$$$$

     RDKit          3D

 21 22  0  0  0  0  0  0  0  0999 V2000
   13.9480   -1.8460   21.3640 Cl  0  0  0  0  0  0  0  0  0  0  0  0
   12.7510   -0.8880   22.1890 C   0  0  0  0  0  0  0  0  0  0  0  0
   13.1390    0.2740   22.8240 C   0  0  0  0  0  0  0  0  0  0  0  0
   12.1770    1.0220   23.4840 C   0  0  0  0  0  0  0  0  0  0  0  0
   10.8510    0.6160   23.4830 C   0  0  0  0  0  0  0  0  0  0  0  0
   11.4340   -1.3050   22.1750 C   0  0  0  0  0  0  0  0  0  0  0  0
   10.4620   -0.5360   22.8070 C   0  0  2  0  0  0  0  0  0  0  0  0
    8.9920   -0.8920   22.6400 C   0  0  1  0  0  0  0  0  0  0  0  0
    8.2000   -0.6090   23.9260 C   0  0  0  0  0  0  0  0  0  0  0  0
    8.4420   -1.6140   25.0290 C   0  0  0  0  0  0  0  0  0  0  0  0
    8.0850   -1.0620   26.3710 C   0  0  0  0  0  0  0  0  0  0  0  0
    8.4120   -0.0700   21.4890 C   0  0  0  0  0  0  0  0  0  0  0  0
    8.8740    1.0190   21.1710 O   0  0  0  0  0  0  0  0  0  0  0  0
    7.3220   -0.6100   20.8990 N   0  0  0  0  0  0  0  0  0  0  0  0
    6.5880    0.0190   19.8650 C   0  0  1  0  0  0  0  0  0  0  0  0
    5.4310    0.7550   20.1730 C   0  0  1  0  0  0  0  0  0  0  0  0
    4.9550    0.9420   21.5920 C   0  0  0  0  0  0  0  0  0  0  0  0
    4.7740    1.3810   19.1200 C   0  0  0  0  0  0  0  0  0  0  0  0
    5.2840    1.2830   17.8420 C   0  0  0  0  0  0  0  0  0  0  0  0
    6.3890    0.5940   17.5390 N   0  0  0  0  0  0  0  0  0  0  0  0
    7.0210   -0.0240   18.5410 C   0  0  0  0  0  0  0  0  0  0  0  0
  2  1  1  0
  3  2  1  0
  4  3  1  0
  5  4  1  0
  6  2  1  0
  7  5  1  6
  7  6  1  0
  8  7  1  0
  8  9  1  1
 10  9  1  0
 11 10  1  0
 12  8  1  0
 13 12  1  0
 14 12  1  0
 15 14  1  1
 16 15  1  0
 16 17  1  1
 18 16  1  0
 19 18  1  0
 20 19  1  0
 21 20  1  0
 21 15  1  0
M  END
$$$$

     RDKit          3D

 16 17  0  0  0  0  0  0  0  0999 V2000
    9.5850    1.0480   21.1080 O   0  0  0  0  0  0  0  0  0  0  0  0
    9.1510   -0.0100   21.5530 C   0  0  0  0  0  0  0  0  0  0  0  0
    9.8750   -0.7590   22.6450 C   0  0  1  0  0  0  0  0  0  0  0  0
   11.3200   -1.0230   22.1870 C   0  0  0  0  0  0  0  0  0  0  0  0
   12.2770   -1.5910   23.2310 C   0  0  1  0  0  0  0  0  0  0  0  0
   13.6980   -1.8260   22.8550 C   0  0  0  0  0  0  0  0  0  0  0  0
   13.3530   -0.7160   23.7880 C   0  0  0  0  0  0  0  0  0  0  0  0
    9.8290    0.0950   23.9130 C   0  0  0  0  0  0  0  0  0  0  0  0
    8.0180   -0.6040   21.1220 N   0  0  0  0  0  0  0  0  0  0  0  0
    7.1730   -0.0880   20.1130 C   0  0  0  0  0  0  0  0  0  0  0  0
    5.9510    0.5130   20.4640 C   0  0  1  0  0  0  0  0  0  0  0  0
    5.5100    0.6510   21.9000 C   0  0  0  0  0  0  0  0  0  0  0  0
    5.1760    1.0350   19.4360 C   0  0  0  0  0  0  0  0  0  0  0  0
    5.6260    0.9530   18.1330 C   0  0  0  0  0  0  0  0  0  0  0  0
    6.7890    0.3910   17.7870 N   0  0  0  0  0  0  0  0  0  0  0  0
    7.5390   -0.1200   18.7660 C   0  0  0  0  0  0  0  0  0  0  0  0
  2  1  1  0
  3  2  1  0
  4  3  1  0
  5  4  1  6
  6  5  1  0
  7  6  1  0
  7  5  1  0
  3  8  1  1
  9  2  1  0
 10  9  1  0
 11 10  1  0
 11 12  1  1
 13 11  1  0
 14 13  1  0
 15 14  1  0
 16 15  1  0
 16 10  1  0
M  END
$$$$

     RDKit          3D

 16 16  0  0  0  0  0  0  0  0999 V2000
    9.7080    0.9780   21.0770 O   0  0  0  0  0  0  0  0  0  0  0  0
    9.1890   -0.0170   21.5650 C   0  0  0  0  0  0  0  0  0  0  0  0
    9.7440   -0.6700   22.8080 C   0  0  0  0  0  0  0  0  0  0  0  0
   10.9270   -1.6020   22.5230 C   0  0  2  0  0  0  0  0  0  0  0  0
   11.0360   -2.6510   23.6270 C   0  0  0  0  0  0  0  0  0  0  0  0
   12.2460   -0.7940   22.3180 C   0  0  2  0  0  0  0  0  0  0  0  0
   13.4320   -1.6580   21.9170 C   0  0  0  0  0  0  0  0  0  0  0  0
   12.5990    0.0620   23.5230 C   0  0  0  0  0  0  0  0  0  0  0  0
    8.0690   -0.5870   21.0830 N   0  0  0  0  0  0  0  0  0  0  0  0
    7.2360   -0.0400   20.0750 C   0  0  0  0  0  0  0  0  0  0  0  0
    6.0150    0.5810   20.4300 C   0  0  1  0  0  0  0  0  0  0  0  0
    5.6190    0.8060   21.8670 C   0  0  0  0  0  0  0  0  0  0  0  0
    5.2070    1.0410   19.3960 C   0  0  0  0  0  0  0  0  0  0  0  0
    5.6350    0.9160   18.0890 C   0  0  0  0  0  0  0  0  0  0  0  0
    6.7990    0.3560   17.7390 N   0  0  0  0  0  0  0  0  0  0  0  0
    7.5750   -0.1160   18.7220 C   0  0  0  0  0  0  0  0  0  0  0  0
  2  1  1  0
  3  2  1  0
  4  3  1  0
  4  5  1  1
  6  4  1  0
  6  7  1  1
  8  6  1  0
  9  2  1  0
 10  9  1  0
 11 10  1  0
 11 12  1  1
 13 11  1  0
 14 13  1  0
 15 14  1  0
 16 15  1  0
 16 10  1  0
M  END
$$$$

     RDKit          3D

 17 19  0  0  0  0  0  0  0  0999 V2000
    9.6900    1.0270   21.1360 O   0  0  0  0  0  0  0  0  0  0  0  0
    9.2250    0.0440   21.7110 C   0  0  0  0  0  0  0  0  0  0  0  0
    9.9220   -0.6060   22.8730 C   0  0  1  0  0  0  0  0  0  0  0  0
   10.9850   -1.6180   22.4330 C   0  0  0  0  0  0  0  0  0  0  0  0
   12.3190   -0.9060   22.7380 C   0  0  2  0  0  0  0  0  0  0  0  0
   13.4700   -1.0410   21.7960 C   0  0  0  0  0  0  0  0  0  0  0  0
   13.5160   -1.6990   23.1500 C   0  0  0  0  0  0  0  0  0  0  0  0
   12.0600    0.4660   23.4050 C   0  0  0  0  0  0  0  0  0  0  0  0
   10.5810    0.4130   23.8240 C   0  0  0  0  0  0  0  0  0  0  0  0
    8.0640   -0.5440   21.3610 N   0  0  0  0  0  0  0  0  0  0  0  0
    7.2310   -0.0830   20.3200 C   0  0  0  0  0  0  0  0  0  0  0  0
    5.9720    0.4610   20.6320 C   0  0  1  0  0  0  0  0  0  0  0  0
    5.4850    0.5890   22.0550 C   0  0  0  0  0  0  0  0  0  0  0  0
    7.6420   -0.1090   18.9860 C   0  0  0  0  0  0  0  0  0  0  0  0
    6.8990    0.3660   17.9790 N   0  0  0  0  0  0  0  0  0  0  0  0
    5.7010    0.8780   18.2880 C   0  0  0  0  0  0  0  0  0  0  0  0
    5.2050    0.9400   19.5760 C   0  0  0  0  0  0  0  0  0  0  0  0
  2  1  1  0
  3  2  1  6
  4  3  1  0
  5  4  1  6
  6  5  1  0
  7  6  1  0
  7  5  1  0
  8  5  1  0
  9  3  1  0
  9  8  1  0
 10  2  1  0
 11 10  1  0
 12 11  1  0
 12 13  1  1
 14 11  1  0
 15 14  1  0
 16 15  1  0
 17 16  1  0
 17 12  1  0
M  END
$$$$

     RDKit          3D

 17 19  0  0  0  0  0  0  0  0999 V2000
    9.7860    0.8840   21.2280 O   0  0  0  0  0  0  0  0  0  0  0  0
    9.2860   -0.1730   21.6040 C   0  0  0  0  0  0  0  0  0  0  0  0
    8.1150   -0.6580   21.1550 N   0  0  0  0  0  0  0  0  0  0  0  0
    7.2900   -0.1010   20.1520 C   0  0  0  0  0  0  0  0  0  0  0  0
    7.6750   -0.0780   18.8100 C   0  0  0  0  0  0  0  0  0  0  0  0
    6.9130    0.4310   17.8360 N   0  0  0  0  0  0  0  0  0  0  0  0
    5.7220    0.9300   18.1860 C   0  0  0  0  0  0  0  0  0  0  0  0
    5.2500    0.9490   19.4830 C   0  0  0  0  0  0  0  0  0  0  0  0
    6.0370    0.4380   20.5060 C   0  0  0  0  0  0  0  0  0  0  0  0
    5.5780    0.5130   21.9420 C   0  0  0  0  0  0  0  0  0  0  0  0
    9.9650   -1.0740   22.6100 C   0  0  0  0  0  0  0  0  0  0  0  0
   11.4560   -0.7580   22.8870 C   0  0  1  0  0  0  0  0  0  0  0  0
   11.8490    0.3600   23.8580 C   0  0  0  0  0  0  0  0  0  0  0  0
   12.6640   -0.3690   24.9140 C   0  0  0  0  0  0  0  0  0  0  0  0
   13.4410   -1.4250   24.1540 C   0  0  0  0  0  0  0  0  0  0  0  0
   12.4800   -1.8470   23.0430 C   0  0  2  0  0  0  0  0  0  0  0  0
   12.4460   -1.0040   21.7960 C   0  0  0  0  0  0  0  0  0  0  0  0
  2  1  1  0
  3  2  1  0
  4  3  1  0
  5  4  1  0
  6  5  1  0
  7  6  1  0
  8  7  1  0
  9  8  1  0
  9  4  1  0
 10  9  1  0
 11  2  1  0
 12 11  1  6
 13 12  1  0
 14 13  1  0
 15 14  1  0
 16 15  1  1
 16 12  1  0
 17 16  1  0
 17 12  1  0
M  END
$$$$

     RDKit          3D

 20 21  0  0  0  0  0  0  0  0999 V2000
    9.3300    0.5580   21.0960 O   0  0  0  0  0  0  0  0  0  0  0  0
    8.4130    0.1140   21.7790 C   0  0  2  0  0  0  0  0  0  0  0  0
    7.1200    0.1240   21.3940 N   0  0  0  0  0  0  0  0  0  0  0  0
    6.5560    0.2520   20.1010 C   0  0  2  0  0  0  0  0  0  0  0  0
    7.2820    0.0020   18.9360 C   0  0  0  0  0  0  0  0  0  0  0  0
    6.8890    0.3840   17.7160 N   0  0  0  0  0  0  0  0  0  0  0  0
    5.7290    1.0400   17.6260 C   0  0  0  0  0  0  0  0  0  0  0  0
    4.9260    1.3190   18.7110 C   0  0  0  0  0  0  0  0  0  0  0  0
    5.3210    0.9150   19.9840 C   0  0  0  0  0  0  0  0  0  0  0  0
    4.4650    1.2250   21.1840 C   0  0  0  0  0  0  0  0  0  0  0  0
    8.6380   -0.4030   23.1850 C   0  0  0  0  0  0  0  0  0  0  0  0
    9.7370   -1.4880   23.3250 C   0  0  2  0  0  0  0  0  0  0  0  0
    9.4690   -2.5740   22.2710 C   0  0  0  0  0  0  0  0  0  0  0  0
    9.6020   -2.1460   24.7030 C   0  0  0  0  0  0  0  0  0  0  0  0
   11.1230   -0.8460   23.1810 C   0  0  0  0  0  0  0  0  0  0  0  0
   11.4680    0.2610   23.9530 C   0  0  0  0  0  0  0  0  0  0  0  0
   12.6950    0.8850   23.7880 C   0  0  0  0  0  0  0  0  0  0  0  0
   13.6000    0.4040   22.8640 C   0  0  0  0  0  0  0  0  0  0  0  0
   13.2830   -0.7030   22.1080 C   0  0  0  0  0  0  0  0  0  0  0  0
   12.0530   -1.3230   22.2590 C   0  0  0  0  0  0  0  0  0  0  0  0
  2  1  1  1
  3  2  1  0
  4  3  1  1
  5  4  1  0
  6  5  1  0
  7  6  1  0
  8  7  1  0
  9  8  1  0
  9  4  1  0
 10  9  1  0
 11  2  1  0
 12 11  1  0
 12 13  1  6
 14 12  1  0
 15 12  1  0
 16 15  1  0
 17 16  1  0
 18 17  1  0
 19 18  1  0
 20 19  1  0
 20 15  1  0
M  END
$$$$

     RDKit          3D

 22 25  0  0  0  0  0  0  0  0999 V2000
   10.6440   -0.5280   23.1820 N   0  0  0  0  0  0  0  0  0  0  0  0
    6.4980    0.6150   17.4170 N   0  0  0  0  0  0  0  0  0  0  0  0
   11.4980    1.4830   23.7310 N   0  0  0  0  0  0  0  0  0  0  0  0
   10.4240    0.7600   23.6060 C   0  0  0  0  0  0  0  0  0  0  0  0
    7.2280   -0.5300   20.9350 C   0  0  0  0  0  0  0  0  0  0  0  0
   12.5330    0.5830   23.3550 O   0  0  0  0  0  0  0  0  0  0  0  0
    7.7960   -0.4070   25.1800 C   0  0  0  0  0  0  0  0  0  0  0  0
    6.5430    0.1450   19.7730 C   0  0  2  0  0  0  0  0  0  0  0  0
    7.0200   -0.0030   18.4820 C   0  0  0  0  0  0  0  0  0  0  0  0
    5.4460    1.4230   17.6240 C   0  0  0  0  0  0  0  0  0  0  0  0
    4.8940    1.6420   18.8740 C   0  0  0  0  0  0  0  0  0  0  0  0
   12.7460   -1.6960   22.5460 C   0  0  1  0  0  0  0  0  0  0  0  0
    9.0090    1.2210   23.8530 C   0  0  2  0  0  0  0  0  0  0  0  0
    8.5250    0.9330   25.2840 C   0  0  0  0  0  0  0  0  0  0  0  0
   11.9240   -0.5720   23.0420 C   0  0  0  0  0  0  0  0  0  0  0  0
   14.0680   -1.3930   21.9100 C   0  0  0  0  0  0  0  0  0  0  0  0
    8.0960    0.4750   21.6650 C   0  0  0  0  0  0  0  0  0  0  0  0
    8.0670    0.4600   23.0190 N   0  0  0  0  0  0  0  0  0  0  0  0
    8.7590    1.2920   21.0420 O   0  0  0  0  0  0  0  0  0  0  0  0
    7.1160   -0.3250   23.8290 C   0  0  0  0  0  0  0  0  0  0  0  0
    5.4560    0.9920   19.9570 C   0  0  0  0  0  0  0  0  0  0  0  0
   14.0300   -2.0070   23.2540 C   0  0  0  0  0  0  0  0  0  0  0  0
  4  1  1  0
  4  3  1  0
  6  3  1  0
  8  5  1  1
  9  8  1  0
  9  2  1  0
 10  2  1  0
 11 10  1  0
 13  4  1  1
 14 13  1  0
 14  7  1  0
 15  1  1  0
 12 15  1  1
 15  6  1  0
 16 12  1  0
 17  5  1  0
 18 17  1  0
 18 13  1  0
 19 17  1  0
 20 18  1  0
 20  7  1  0
 21 11  1  0
 21  8  1  0
 22 16  1  0
 22 12  1  0
M  END
$$$$

     RDKit          3D

 19 20  0  0  0  0  0  0  0  0999 V2000
    6.4770    0.5540   17.5370 N   0  0  0  0  0  0  0  0  0  0  0  0
    7.3750   -0.4700   20.9740 N   0  0  0  0  0  0  0  0  0  0  0  0
    5.5760    0.9570   20.1520 C   0  0  0  0  0  0  0  0  0  0  0  0
   13.2770   -0.1690   23.0970 C   0  0  0  0  0  0  0  0  0  0  0  0
   10.5210   -0.5870   22.8880 C   0  0  1  0  0  0  0  0  0  0  0  0
    4.9320    1.5390   19.0670 C   0  0  0  0  0  0  0  0  0  0  0  0
    8.5280    0.0090   21.4820 C   0  0  0  0  0  0  0  0  0  0  0  0
    6.6860    0.1420   19.8980 C   0  0  0  0  0  0  0  0  0  0  0  0
    7.1230   -0.0490   18.5650 C   0  0  0  0  0  0  0  0  0  0  0  0
   12.4100    0.4250   23.9990 C   0  0  0  0  0  0  0  0  0  0  0  0
   11.3970   -1.2040   22.0020 C   0  0  0  0  0  0  0  0  0  0  0  0
   11.0430    0.2090   23.9000 C   0  0  0  0  0  0  0  0  0  0  0  0
   12.7550   -1.0030   22.1310 C   0  0  2  0  0  0  0  0  0  0  0  0
    5.0830    1.2080   21.5550 C   0  0  0  0  0  0  0  0  0  0  0  0
    8.1820   -0.8110   18.2760 N   0  0  0  0  0  0  0  0  0  0  0  0
    9.1170    0.9840   21.0240 O   0  0  0  0  0  0  0  0  0  0  0  0
    9.0300   -0.7370   22.7030 C   0  0  0  0  0  0  0  0  0  0  0  0
    5.4060    1.3120   17.7980 C   0  0  0  0  0  0  0  0  0  0  0  0
   13.8360   -1.9150   21.1160 Cl  0  0  0  0  0  0  0  0  0  0  0  0
  6  3  1  0
  7  2  1  0
  8  3  1  0
  8  2  1  0
  9  8  1  0
  9  1  1  0
 10  4  1  0
 11  5  1  0
 12  5  1  0
 12 10  1  0
 13 11  1  0
 13  4  1  0
 14  3  1  0
 15  9  1  0
 16  7  1  0
 17  7  1  0
  5 17  1  6
 18  6  1  0
 18  1  1  0
 13 19  1  1
M  END
$$$$

     RDKit          3D

 20 22  0  0  0  0  0  0  0  0999 V2000
    6.3400    0.3650   20.0990 C   0  0  2  0  0  0  0  0  0  0  0  0
    5.6010    1.2260   17.6100 C   0  0  0  0  0  0  0  0  0  0  0  0
    8.9800   -0.6440   22.2900 N   0  0  0  0  0  0  0  0  0  0  0  0
    6.6610    0.4130   17.7110 N   0  0  0  0  0  0  0  0  0  0  0  0
    4.8570    1.6390   18.7000 C   0  0  0  0  0  0  0  0  0  0  0  0
   13.0330   -0.4980   23.4440 C   0  0  0  0  0  0  0  0  0  0  0  0
    8.9460    1.3980   21.2030 O   0  0  0  0  0  0  0  0  0  0  0  0
   12.6350   -1.2300   22.3410 C   0  0  0  0  0  0  0  0  0  0  0  0
    8.3670    0.4150   21.6230 C   0  0  1  0  0  0  0  0  0  0  0  0
   12.0680    0.1540   24.1980 C   0  0  0  0  0  0  0  0  0  0  0  0
    8.1140   -1.7380   22.4130 C   0  0  0  0  0  0  0  0  0  0  0  0
    6.9320   -1.3610   21.8790 N   0  0  0  0  0  0  0  0  0  0  0  0
    8.3820   -2.8190   22.9150 O   0  0  0  0  0  0  0  0  0  0  0  0
   11.3120   -1.3120   21.9570 C   0  0  0  0  0  0  0  0  0  0  0  0
    6.9060    0.0380   21.4740 C   0  0  2  0  0  0  0  0  0  0  0  0
   10.3550   -0.6380   22.7120 C   0  0  0  0  0  0  0  0  0  0  0  0
    6.9990   -0.0080   18.9360 C   0  0  0  0  0  0  0  0  0  0  0  0
    5.2360    1.1950   19.9560 C   0  0  0  0  0  0  0  0  0  0  0  0
   10.7300    0.0840   23.8420 C   0  0  0  0  0  0  0  0  0  0  0  0
   13.8290   -2.1070   21.4270 Cl  0  0  0  0  0  0  0  0  0  0  0  0
  4  2  1  0
  5  2  1  0
  8  6  1  0
  9  7  1  6
  9  3  1  0
 10  6  1  0
 11  3  1  0
 12 11  1  0
 13 11  1  0
 14  8  1  0
 15  9  1  0
 15  1  1  0
 15 12  1  6
 16  3  1  0
 16 14  1  0
 17  4  1  0
  1 17  1  6
 18  5  1  0
 18  1  1  0
 19 16  1  0
 19 10  1  0
 20  8  1  0
M  END
$$$$

     RDKit          3D

 17 19  0  0  0  0  0  0  0  0999 V2000
    9.8990    0.4490   21.0390 O   0  0  0  0  0  0  0  0  0  0  0  0
    9.0550    0.1340   21.8620 C   0  0  1  0  0  0  0  0  0  0  0  0
    9.4240   -0.4250   23.2180 C   0  0  2  0  0  0  0  0  0  0  0  0
   10.9160   -0.8690   23.4100 C   0  0  1  0  0  0  0  0  0  0  0  0
   11.9810   -1.1550   22.3100 C   0  0  0  0  0  0  0  0  0  0  0  0
   12.8250    0.0060   22.8340 C   0  0  0  0  0  0  0  0  0  0  0  0
   11.9600    0.0550   24.0950 C   0  0  0  0  0  0  0  0  0  0  0  0
   10.3880   -2.1200   24.1550 C   0  0  0  0  0  0  0  0  0  0  0  0
    9.0040   -1.8740   23.5270 C   0  0  0  0  0  0  0  0  0  0  0  0
    7.7360    0.3610   21.6930 N   0  0  0  0  0  0  0  0  0  0  0  0
    6.9780    0.4450   20.4970 C   0  0  0  0  0  0  0  0  0  0  0  0
    5.6270    0.8390   20.5790 C   0  0  0  0  0  0  0  0  0  0  0  0
    4.9360    1.0500   21.9020 C   0  0  0  0  0  0  0  0  0  0  0  0
    7.5190    0.1870   19.2340 C   0  0  0  0  0  0  0  0  0  0  0  0
    6.8480    0.3620   18.0910 N   0  0  0  0  0  0  0  0  0  0  0  0
    5.5870    0.7950   18.1820 C   0  0  0  0  0  0  0  0  0  0  0  0
    4.9440    1.0300   19.3810 C   0  0  0  0  0  0  0  0  0  0  0  0
  2  1  1  1
  3  2  1  0
  4  3  1  0
  4  5  1  6
  6  5  1  0
  7  6  1  0
  7  4  1  0
  8  4  1  0
  9  8  1  0
  3  9  1  6
 10  2  1  0
 11 10  1  0
 12 11  1  0
 13 12  1  0
 14 11  1  0
 15 14  1  0
 16 15  1  0
 17 16  1  0
 17 12  1  0
M  END
$$$$

     RDKit          3D

 17 19  0  0  0  0  0  0  0  0999 V2000
    9.2250    1.1090   21.0440 O   0  0  0  0  0  0  0  0  0  0  0  0
    8.6680    0.1390   21.5380 C   0  0  0  0  0  0  0  0  0  0  0  0
    9.1710   -0.5180   22.7990 C   0  0  2  0  0  0  0  0  0  0  0  0
   10.4080    0.1330   23.4720 C   0  0  0  0  0  0  0  0  0  0  0  0
   11.2670   -0.8600   22.6660 C   0  0  1  0  0  0  0  0  0  0  0  0
   12.3960   -1.3710   23.4080 C   0  0  2  0  0  0  0  0  0  0  0  0
   13.5930   -0.4970   23.6170 C   0  0  0  0  0  0  0  0  0  0  0  0
   13.6870   -1.6840   22.7180 C   0  0  0  0  0  0  0  0  0  0  0  0
   10.0380   -1.7910   22.6190 C   0  0  0  0  0  0  0  0  0  0  0  0
    7.5510   -0.4150   21.0310 N   0  0  0  0  0  0  0  0  0  0  0  0
    6.8210    0.1160   19.9520 C   0  0  0  0  0  0  0  0  0  0  0  0
    5.6260    0.8150   20.2020 C   0  0  1  0  0  0  0  0  0  0  0  0
    5.1220    1.0610   21.6010 C   0  0  0  0  0  0  0  0  0  0  0  0
    7.2780    0.0060   18.6380 C   0  0  0  0  0  0  0  0  0  0  0  0
    6.6420    0.5500   17.5960 N   0  0  0  0  0  0  0  0  0  0  0  0
    5.4980    1.1950   17.8400 C   0  0  0  0  0  0  0  0  0  0  0  0
    4.9560    1.3410   19.1040 C   0  0  0  0  0  0  0  0  0  0  0  0
  2  1  1  0
  3  2  1  6
  4  3  1  0
  5  4  1  1
  6  5  1  0
  6  7  1  1
  8  7  1  0
  8  6  1  0
  9  3  1  0
  9  5  1  0
 10  2  1  0
 11 10  1  0
 12 11  1  0
 12 13  1  1
 14 11  1  0
 15 14  1  0
 16 15  1  0
 17 16  1  0
 17 12  1  0
M  END
$$$$

     RDKit          3D

 18 19  0  0  0  0  0  0  0  0999 V2000
    9.8980    0.3570   24.2570 C   0  0  0  0  0  0  0  0  0  0  0  0
    6.4970    0.4400   17.3880 N   0  0  0  0  0  0  0  0  0  0  0  0
   12.1430   -0.6370   23.0230 C   0  0  2  0  0  0  0  0  0  0  0  0
    5.3690    0.7790   19.9390 C   0  0  0  0  0  0  0  0  0  0  0  0
   12.2810    0.3850   23.9450 C   0  0  0  0  0  0  0  0  0  0  0  0
    4.7930    1.0260   21.3100 C   0  0  0  0  0  0  0  0  0  0  0  0
    9.7610   -0.6330   23.2930 C   0  0  1  0  0  0  0  0  0  0  0  0
    4.8650    1.4420   18.8260 C   0  0  0  0  0  0  0  0  0  0  0  0
    8.1440   -0.3430   21.4620 C   0  0  0  0  0  0  0  0  0  0  0  0
    7.0270   -0.7490   20.8360 N   0  0  0  0  0  0  0  0  0  0  0  0
    8.8740    0.5560   21.0420 O   0  0  0  0  0  0  0  0  0  0  0  0
    6.4580   -0.0830   19.7340 C   0  0  0  0  0  0  0  0  0  0  0  0
    8.4030   -1.0420   22.7810 C   0  0  0  0  0  0  0  0  0  0  0  0
    6.9790   -0.2190   18.4460 C   0  0  0  0  0  0  0  0  0  0  0  0
   11.1460    0.8710   24.5750 C   0  0  0  0  0  0  0  0  0  0  0  0
   10.9040   -1.1410   22.6930 C   0  0  0  0  0  0  0  0  0  0  0  0
    5.4550    1.2540   17.5930 C   0  0  0  0  0  0  0  0  0  0  0  0
   13.8400   -1.5310   22.1970 I   0  0  0  0  0  0  0  0  0  0  0  0
  5  3  1  0
  6  4  1  0
  7  1  1  0
  8  4  1  0
 10  9  1  0
 11  9  1  0
 12  4  1  0
 12 10  1  0
 13  9  1  0
  7 13  1  6
 14 12  1  0
 14  2  1  0
 15  1  1  0
 15  5  1  0
 16  7  1  0
 16  3  1  0
 17  8  1  0
 17  2  1  0
  3 18  1  1
M  END
$$$$

     RDKit          3D

 20 22  0  0  0  0  0  0  0  0999 V2000
    8.9050    0.4800   21.1080 O   0  0  0  0  0  0  0  0  0  0  0  0
    8.1910   -0.4490   21.4910 C   0  0  0  0  0  0  0  0  0  0  0  0
    7.0250   -0.7850   20.9100 N   0  0  0  0  0  0  0  0  0  0  0  0
    6.4240   -0.0720   19.8560 C   0  0  0  0  0  0  0  0  0  0  0  0
    6.9200   -0.1540   18.5540 C   0  0  0  0  0  0  0  0  0  0  0  0
    6.4170    0.5490   17.5350 N   0  0  0  0  0  0  0  0  0  0  0  0
    5.3760    1.3480   17.7920 C   0  0  0  0  0  0  0  0  0  0  0  0
    4.8030    1.4780   19.0430 C   0  0  0  0  0  0  0  0  0  0  0  0
    5.3360    0.7780   20.1190 C   0  0  2  0  0  0  0  0  0  0  0  0
    4.8130    0.9980   21.5170 C   0  0  0  0  0  0  0  0  0  0  0  0
    8.5330   -1.2790   22.7120 C   0  0  0  0  0  0  0  0  0  0  0  0
    9.7370   -0.6870   23.3990 C   0  0  1  0  0  0  0  0  0  0  0  0
   11.0140   -1.0070   22.9550 C   0  0  0  0  0  0  0  0  0  0  0  0
   12.1330   -0.3330   23.4220 C   0  0  0  0  0  0  0  0  0  0  0  0
   13.5040   -0.7180   22.9170 C   0  0  2  0  0  0  0  0  0  0  0  0
   13.6730   -1.3870   21.5850 C   0  0  0  0  0  0  0  0  0  0  0  0
   13.9130   -2.1580   22.8200 C   0  0  0  0  0  0  0  0  0  0  0  0
   11.9640    0.6750   24.3600 C   0  0  0  0  0  0  0  0  0  0  0  0
   10.7040    0.9800   24.8450 C   0  0  0  0  0  0  0  0  0  0  0  0
    9.5970    0.2940   24.3700 C   0  0  0  0  0  0  0  0  0  0  0  0
  2  1  1  0
  3  2  1  0
  4  3  1  0
  5  4  1  0
  6  5  1  0
  7  6  1  0
  8  7  1  0
  9  8  1  0
  9  4  1  0
  9 10  1  1
 11  2  1  0
 12 11  1  6
 13 12  1  0
 14 13  1  0
 15 14  1  1
 16 15  1  0
 17 16  1  0
 17 15  1  0
 18 14  1  0
 19 18  1  0
 20 19  1  0
 20 12  1  0
M  END
$$$$

     RDKit          3D

 17 19  0  0  0  0  0  0  0  0999 V2000
    6.6870    0.3030   17.7980 N   0  0  0  0  0  0  0  0  0  0  0  0
    5.8760    0.6940   20.4590 C   0  0  0  0  0  0  0  0  0  0  0  0
   13.8660   -1.7210   23.7130 C   0  0  0  0  0  0  0  0  0  0  0  0
   11.2940   -0.0520   22.6490 C   0  0  1  0  0  0  0  0  0  0  0  0
    5.0920    1.1170   19.3910 C   0  0  0  0  0  0  0  0  0  0  0  0
    9.0350    0.2510   21.5880 C   0  0  0  0  0  0  0  0  0  0  0  0
    7.0860    0.0380   20.1540 C   0  0  0  0  0  0  0  0  0  0  0  0
    7.4420   -0.1250   18.8140 C   0  0  0  0  0  0  0  0  0  0  0  0
   11.9990    0.0590   24.0030 C   0  0  0  0  0  0  0  0  0  0  0  0
   12.6100   -2.0480   22.9700 C   0  0  2  0  0  0  0  0  0  0  0  0
   12.1420   -1.0730   21.8880 C   0  0  0  0  0  0  0  0  0  0  0  0
   12.5260   -1.3520   24.2640 C   0  0  1  0  0  0  0  0  0  0  0  0
    5.4570    0.9790   21.8810 C   0  0  0  0  0  0  0  0  0  0  0  0
    7.9280   -0.4080   21.2000 N   0  0  0  0  0  0  0  0  0  0  0  0
    9.4110    1.2990   21.0780 O   0  0  0  0  0  0  0  0  0  0  0  0
    9.8060   -0.4030   22.7200 C   0  0  0  0  0  0  0  0  0  0  0  0
    5.5280    0.9040   18.0980 C   0  0  0  0  0  0  0  0  0  0  0  0
  5  2  1  0
  7  2  1  0
  8  7  1  0
  8  1  1  0
  9  4  1  0
 10  3  1  6
 11 10  1  0
 11  4  1  0
 12 10  1  0
 12  9  1  6
 12  3  1  0
 13  2  1  0
 14  7  1  0
 14  6  1  0
 15  6  1  0
 16  6  1  0
  4 16  1  1
 17  5  1  0
 17  1  1  0
M  END
$$$$

     RDKit          3D

 19 20  0  0  0  0  0  0  0  0999 V2000
   13.2070   -1.6960   22.0270 F   0  0  0  0  0  0  0  0  0  0  0  0
   13.0310   -1.6670   23.3690 C   0  0  0  0  0  0  0  0  0  0  0  0
   13.8430   -2.4500   24.1570 C   0  0  0  0  0  0  0  0  0  0  0  0
   13.6920   -2.3820   25.5320 C   0  0  0  0  0  0  0  0  0  0  0  0
   12.7580   -1.5300   26.0830 C   0  0  0  0  0  0  0  0  0  0  0  0
   11.9480   -0.7550   25.2620 C   0  0  0  0  0  0  0  0  0  0  0  0
   12.0570   -0.8270   23.8730 C   0  0  0  0  0  0  0  0  0  0  0  0
   11.1090   -0.0290   23.0020 C   0  0  0  0  0  0  0  0  0  0  0  0
    9.9620   -0.8650   22.3880 C   0  0  0  0  0  0  0  0  0  0  0  0
    9.1140   -0.0550   21.4330 C   0  0  0  0  0  0  0  0  0  0  0  0
    9.4580    1.0600   21.0530 O   0  0  0  0  0  0  0  0  0  0  0  0
    7.9800   -0.6530   21.0210 N   0  0  0  0  0  0  0  0  0  0  0  0
    7.1350   -0.0780   20.0300 C   0  0  0  0  0  0  0  0  0  0  0  0
    5.9440    0.5800   20.4110 C   0  0  1  0  0  0  0  0  0  0  0  0
    5.5560    0.7530   21.8580 C   0  0  0  0  0  0  0  0  0  0  0  0
    7.4640   -0.1120   18.6740 C   0  0  0  0  0  0  0  0  0  0  0  0
    6.7100    0.4330   17.7120 N   0  0  0  0  0  0  0  0  0  0  0  0
    5.5740    1.0290   18.0870 C   0  0  0  0  0  0  0  0  0  0  0  0
    5.1590    1.1250   19.3990 C   0  0  0  0  0  0  0  0  0  0  0  0
  2  1  1  0
  3  2  1  0
  4  3  1  0
  5  4  1  0
  6  5  1  0
  7  6  1  0
  7  2  1  0
  8  7  1  0
  9  8  1  0
 10  9  1  0
 11 10  1  0
 12 10  1  0
 13 12  1  0
 14 13  1  0
 14 15  1  1
 16 13  1  0
 17 16  1  0
 18 17  1  0
 19 18  1  0
 19 14  1  0
M  END
$$$$

     RDKit          3D

 17 18  0  0  0  0  0  0  0  0999 V2000
    6.9070   -0.0830   17.7750 O   0  0  0  0  0  0  0  0  0  0  0  0
    6.1820    0.5030   18.5580 C   0  0  0  0  0  0  0  0  0  0  0  0
    5.2310    1.4250   18.3310 N   0  0  0  0  0  0  0  0  0  0  0  0
    4.6770    1.9160   19.4930 N   0  0  0  0  0  0  0  0  0  0  0  0
    5.2930    1.2790   20.4350 C   0  0  0  0  0  0  0  0  0  0  0  0
    6.2080    0.4090   19.9290 N   0  0  0  0  0  0  0  0  0  0  0  0
    7.0080   -0.4610   20.6500 N   0  0  0  0  0  0  0  0  0  0  0  0
    8.1710   -0.0250   21.1760 C   0  0  0  0  0  0  0  0  0  0  0  0
    8.7500    0.9930   20.8010 O   0  0  0  0  0  0  0  0  0  0  0  0
    8.7070   -0.8610   22.3210 C   0  0  0  0  0  0  0  0  0  0  0  0
   10.1360   -0.5040   22.6680 C   0  0  1  0  0  0  0  0  0  0  0  0
   11.1880   -1.2320   22.1200 C   0  0  0  0  0  0  0  0  0  0  0  0
   12.4890   -0.8150   22.3290 C   0  0  0  0  0  0  0  0  0  0  0  0
   13.7900   -1.7190   21.5990 Cl  0  0  0  0  0  0  0  0  0  0  0  0
   10.4260    0.6000   23.4620 C   0  0  0  0  0  0  0  0  0  0  0  0
   11.7390    1.0020   23.6660 C   0  0  0  0  0  0  0  0  0  0  0  0
   12.7830    0.3000   23.0850 C   0  0  0  0  0  0  0  0  0  0  0  0
  2  1  1  0
  3  2  1  0
  4  3  1  0
  5  4  1  0
  6  5  1  0
  6  2  1  0
  7  6  1  0
  8  7  1  0
  9  8  1  0
 10  8  1  0
 11 10  1  6
 12 11  1  0
 13 12  1  0
 14 13  1  0
 15 11  1  0
 16 15  1  0
 17 16  1  0
 17 13  1  0
M  END
$$$$

     RDKit          3D

 18 19  0  0  0  0  0  0  0  0999 V2000
    8.7210   -1.4390   23.4000 S   0  0  1  0  0  0  0  0  0  0  0  0
   12.8410    0.4190   23.1220 C   0  0  0  0  0  0  0  0  0  0  0  0
    9.9550   -5.3830   25.2360 N   0  0  0  0  0  0  0  0  0  0  0  0
    8.3820   -3.6110   26.7460 C   0  0  0  0  0  0  0  0  0  0  0  0
   11.2730   -1.2950   22.4660 C   0  0  0  0  0  0  0  0  0  0  0  0
    7.7810   -0.3710   23.2440 O   0  0  0  0  0  0  0  0  0  0  0  0
    7.5610   -2.6680   27.5870 C   0  0  0  0  0  0  0  0  0  0  0  0
   11.8970    0.9400   23.9960 C   0  0  0  0  0  0  0  0  0  0  0  0
    8.7250   -4.8720   27.2240 C   0  0  0  0  0  0  0  0  0  0  0  0
   10.3400   -0.7460   23.3320 C   0  0  0  0  0  0  0  0  0  0  0  0
    8.5080   -1.9790   24.9240 N   0  0  0  0  0  0  0  0  0  0  0  0
    8.6700   -2.5550   22.5070 O   0  0  0  0  0  0  0  0  0  0  0  0
    8.8470   -3.2510   25.4700 C   0  0  0  0  0  0  0  0  0  0  0  0
   10.6450    0.3590   24.1110 C   0  0  0  0  0  0  0  0  0  0  0  0
    9.6320   -4.1720   24.7680 C   0  0  0  0  0  0  0  0  0  0  0  0
   12.5180   -0.7010   22.3830 C   0  0  0  0  0  0  0  0  0  0  0  0
    9.4980   -5.7110   26.4470 C   0  0  0  0  0  0  0  0  0  0  0  0
   13.7250   -1.4110   21.3500 Cl  0  0  0  0  0  0  0  0  0  0  0  0
  1  6  1  6
  7  4  1  0
  8  2  1  0
  9  4  1  0
 10  1  1  0
 10  5  1  0
 11  1  1  0
 12  1  1  0
 13 11  1  0
 13  4  1  0
 14 10  1  0
 14  8  1  0
 15 13  1  0
 15  3  1  0
 16  5  1  0
 16  2  1  0
 17  9  1  0
 17  3  1  0
 18 16  1  0
M  END
$$$$

     RDKit          3D

 17 18  0  0  0  0  0  0  0  0999 V2000
   11.8050    0.8720   23.7560 N   0  0  0  0  0  0  0  0  0  0  0  0
   10.9910    0.1760   23.3740 C   0  0  0  0  0  0  0  0  0  0  0  0
    9.9160   -0.6580   22.8100 C   0  0  1  0  0  0  0  0  0  0  0  0
   10.5360   -1.9790   22.3400 C   0  0  0  0  0  0  0  0  0  0  0  0
   10.5050   -2.8150   23.4920 O   0  0  0  0  0  0  0  0  0  0  0  0
    9.2440   -2.5680   24.1150 C   0  0  0  0  0  0  0  0  0  0  0  0
    8.9600   -1.0850   23.9560 C   0  0  0  0  0  0  0  0  0  0  0  0
    9.3050    0.1650   21.6590 C   0  0  2  0  0  0  0  0  0  0  0  0
   10.0260    0.9050   21.0150 O   0  0  0  0  0  0  0  0  0  0  0  0
    7.9720    0.1800   21.5480 N   0  0  0  0  0  0  0  0  0  0  0  0
    7.1830    0.3410   20.3850 C   0  0  0  0  0  0  0  0  0  0  0  0
    5.8270    0.6570   20.5370 C   0  0  1  0  0  0  0  0  0  0  0  0
    5.2140    0.8940   21.8930 C   0  0  0  0  0  0  0  0  0  0  0  0
    7.6800    0.1550   19.0900 C   0  0  0  0  0  0  0  0  0  0  0  0
    6.9530    0.3300   17.9820 N   0  0  0  0  0  0  0  0  0  0  0  0
    5.6780    0.6970   18.1420 C   0  0  0  0  0  0  0  0  0  0  0  0
    5.0810    0.8560   19.3780 C   0  0  0  0  0  0  0  0  0  0  0  0
  2  1  1  0
  3  2  1  1
  4  3  1  0
  5  4  1  0
  6  5  1  0
  7  6  1  0
  7  3  1  0
  8  3  1  0
  8  9  1  1
 10  8  1  0
 11 10  1  0
 12 11  1  0
 12 13  1  1
 14 11  1  0
 15 14  1  0
 16 15  1  0
 17 16  1  0
 17 12  1  0
M  END
$$$$

     RDKit          3D

 17 19  0  0  0  0  0  0  0  0999 V2000
    9.6760    1.1600   21.1860 O   0  0  0  0  0  0  0  0  0  0  0  0
    9.5290   -0.0370   21.4310 C   0  0  0  0  0  0  0  0  0  0  0  0
   10.5240   -0.8090   22.2690 C   0  0  2  0  0  0  0  0  0  0  0  0
   11.0800   -0.0910   23.4920 C   0  0  1  0  0  0  0  0  0  0  0  0
   11.3880   -0.9080   24.7510 C   0  0  0  0  0  0  0  0  0  0  0  0
   12.8350   -1.4050   24.8270 C   0  0  0  0  0  0  0  0  0  0  0  0
   13.2210   -2.1750   23.5790 C   0  0  0  0  0  0  0  0  0  0  0  0
   13.0890   -1.3150   22.3160 C   0  0  0  0  0  0  0  0  0  0  0  0
   11.9530   -0.2790   22.2900 C   0  0  1  0  0  0  0  0  0  0  0  0
    8.4950   -0.7700   20.9730 N   0  0  0  0  0  0  0  0  0  0  0  0
    7.5150   -0.2440   20.0850 C   0  0  0  0  0  0  0  0  0  0  0  0
    6.2770    0.2080   20.5960 C   0  0  0  0  0  0  0  0  0  0  0  0
    5.9140    0.0530   22.0540 C   0  0  0  0  0  0  0  0  0  0  0  0
    7.7480   -0.1070   18.7130 C   0  0  0  0  0  0  0  0  0  0  0  0
    6.8700    0.4280   17.8580 N   0  0  0  0  0  0  0  0  0  0  0  0
    5.7060    0.8550   18.3590 C   0  0  0  0  0  0  0  0  0  0  0  0
    5.3790    0.7810   19.6970 C   0  0  0  0  0  0  0  0  0  0  0  0
  2  1  1  0
  3  2  1  6
  4  3  1  0
  4  5  1  1
  6  5  1  0
  7  6  1  0
  8  7  1  0
  9  3  1  0
  9  8  1  1
  9  4  1  0
 10  2  1  0
 11 10  1  0
 12 11  1  0
 13 12  1  0
 14 11  1  0
 15 14  1  0
 16 15  1  0
 17 16  1  0
 17 12  1  0
M  END
$$$$

     RDKit          3D

 23 25  0  0  0  0  0  0  0  0999 V2000
    6.4200    0.6670   17.3500 N   0  0  0  0  0  0  0  0  0  0  0  0
    9.3840   -0.3800   23.3930 N   0  0  0  0  0  0  0  0  0  0  0  0
    5.2870    0.9060   19.9060 C   0  0  1  0  0  0  0  0  0  0  0  0
   12.8670    0.3670   24.2650 C   0  0  0  0  0  0  0  0  0  0  0  0
    7.5080    0.7010   24.1790 O   0  0  0  0  0  0  0  0  0  0  0  0
    8.7250    0.5420   24.1810 C   0  0  0  0  0  0  0  0  0  0  0  0
    4.7740    1.5990   18.8170 C   0  0  0  0  0  0  0  0  0  0  0  0
    8.1430   -0.2780   21.3150 C   0  0  0  0  0  0  0  0  0  0  0  0
    6.3760    0.0520   19.6700 C   0  0  1  0  0  0  0  0  0  0  0  0
    6.9020   -0.0340   18.3820 C   0  0  0  0  0  0  0  0  0  0  0  0
   11.4920    0.2670   24.3200 C   0  0  0  0  0  0  0  0  0  0  0  0
   12.8590   -1.0600   22.3620 C   0  0  0  0  0  0  0  0  0  0  0  0
    9.5660    1.4090   25.0870 C   0  0  0  0  0  0  0  0  0  0  0  0
   13.5520   -0.2810   23.2580 C   0  0  0  0  0  0  0  0  0  0  0  0
   11.4830   -1.1720   22.3960 C   0  0  0  0  0  0  0  0  0  0  0  0
    4.7420    1.1430   21.2920 C   0  0  0  0  0  0  0  0  0  0  0  0
    6.9760   -0.6430   20.7430 N   0  0  0  0  0  0  0  0  0  0  0  0
    8.7930    0.7110   20.9920 O   0  0  0  0  0  0  0  0  0  0  0  0
   10.8630    0.8720   25.3770 O   0  0  0  0  0  0  0  0  0  0  0  0
    8.5830   -1.1660   22.4630 C   0  0  0  0  0  0  0  0  0  0  0  0
    5.3690    1.4660   17.5810 C   0  0  0  0  0  0  0  0  0  0  0  0
   10.7870   -0.4610   23.3700 C   0  0  2  0  0  0  0  0  0  0  0  0
   13.7530   -1.9660   21.1720 Cl  0  0  0  0  0  0  0  0  0  0  0  0
  6  5  1  0
  6  2  1  0
  7  3  1  0
  9  3  1  0
 10  9  1  0
 10  1  1  0
 11  4  1  0
 13  6  1  0
 14 12  1  0
 14  4  1  0
 15 12  1  0
  3 16  1  1
  9 17  1  1
 17  8  1  0
 18  8  1  0
 19 13  1  0
 19 11  1  0
 20  8  1  0
 20  2  1  0
 21  7  1  0
 21  1  1  0
 22  2  1  0
 22 15  1  6
 22 11  1  0
 23 12  1  0
M  END
$$$$

     RDKit          3D

 22 24  0  0  0  0  0  0  0  0999 V2000
    5.1430    0.9020   21.2870 N   0  0  0  0  0  0  0  0  0  0  0  0
    7.5880   -0.4270   20.8680 N   0  0  0  0  0  0  0  0  0  0  0  0
    3.8840    1.1870   21.7240 C   0  0  0  0  0  0  0  0  0  0  0  0
   12.2270    0.8580   23.8210 C   0  0  0  0  0  0  0  0  0  0  0  0
    9.0490    1.3120   20.9840 O   0  0  0  0  0  0  0  0  0  0  0  0
    9.2130   -0.4220   22.6640 C   0  0  1  0  0  0  0  0  0  0  0  0
    5.6320    0.7350   19.9660 C   0  0  2  0  0  0  0  0  0  0  0  0
    6.8360    0.0400   19.7660 C   0  0  1  0  0  0  0  0  0  0  0  0
    7.3250   -0.0730   18.4680 C   0  0  0  0  0  0  0  0  0  0  0  0
    5.5760    1.1470   17.6260 C   0  0  0  0  0  0  0  0  0  0  0  0
   10.9350    0.4140   23.5610 C   0  0  0  0  0  0  0  0  0  0  0  0
   13.0380   -0.6570   22.1770 C   0  0  0  0  0  0  0  0  0  0  0  0
   14.0890   -1.2350   21.5390 F   0  0  0  0  0  0  0  0  0  0  0  0
    9.4560    0.5260   23.8920 C   0  0  0  0  0  0  0  0  0  0  0  0
   13.2950    0.3320   23.1100 C   0  0  0  0  0  0  0  0  0  0  0  0
   11.7720   -1.1200   21.8910 C   0  0  0  0  0  0  0  0  0  0  0  0
    3.7290    1.2400   23.2160 C   0  0  0  0  0  0  0  0  0  0  0  0
    6.7180    0.4760   17.4110 N   0  0  0  0  0  0  0  0  0  0  0  0
    2.9330    1.3850   20.9640 O   0  0  0  0  0  0  0  0  0  0  0  0
    8.6210    0.2450   21.4230 C   0  0  0  0  0  0  0  0  0  0  0  0
    4.9870    1.2970   18.8670 C   0  0  0  0  0  0  0  0  0  0  0  0
   10.7300   -0.5340   22.6000 C   0  0  2  0  0  0  0  0  0  0  0  0
  3  1  1  0
  7  1  1  1
  8  7  1  0
  8  2  1  1
  9  8  1  0
 11  4  1  0
 13 12  1  0
 14  6  1  0
 14 11  1  0
 15 12  1  0
 15  4  1  0
 16 12  1  0
 17  3  1  0
 18 10  1  0
 18  9  1  0
 19  3  1  0
 20  5  1  0
 20  2  1  0
  6 20  1  6
 21 10  1  0
 21  7  1  0
 22  6  1  0
 22 16  1  6
 22 11  1  0
M  END
$$$$

     RDKit          3D

 21 23  0  0  0  0  0  0  0  0999 V2000
    6.5380    0.6270   17.4080 N   0  0  0  0  0  0  0  0  0  0  0  0
    9.6320   -0.6450   23.4010 N   0  0  0  0  0  0  0  0  0  0  0  0
    5.4100    0.7490   19.9830 C   0  0  1  0  0  0  0  0  0  0  0  0
   12.9440    0.5430   23.9330 C   0  0  0  0  0  0  0  0  0  0  0  0
    9.3920    0.1360   24.5090 C   0  0  0  0  0  0  0  0  0  0  0  0
    4.8480    1.4320   18.9110 C   0  0  0  0  0  0  0  0  0  0  0  0
    8.2450   -0.3990   21.4160 C   0  0  0  0  0  0  0  0  0  0  0  0
    6.5430   -0.0390   19.7190 C   0  0  0  0  0  0  0  0  0  0  0  0
    7.0660   -0.0640   18.4240 C   0  0  0  0  0  0  0  0  0  0  0  0
   11.5800    0.2750   24.0520 C   0  0  0  0  0  0  0  0  0  0  0  0
   13.0740   -0.9200   22.0460 C   0  0  0  0  0  0  0  0  0  0  0  0
   10.5400    0.7090   24.9350 C   0  0  0  0  0  0  0  0  0  0  0  0
   13.6900   -0.0450   22.9280 C   0  0  0  0  0  0  0  0  0  0  0  0
   11.7200   -1.1970   22.1090 C   0  0  0  0  0  0  0  0  0  0  0  0
    4.8920    0.9580   21.3830 C   0  0  0  0  0  0  0  0  0  0  0  0
    7.1320   -0.7780   20.7660 N   0  0  0  0  0  0  0  0  0  0  0  0
    8.9050    0.6000   21.1280 O   0  0  0  0  0  0  0  0  0  0  0  0
    8.6080   -1.2920   22.5910 C   0  0  0  0  0  0  0  0  0  0  0  0
    5.4390    1.3500   17.6630 C   0  0  0  0  0  0  0  0  0  0  0  0
   10.9850   -0.5850   23.1140 C   0  0  0  0  0  0  0  0  0  0  0  0
   14.0390   -1.7330   20.8510 Cl  0  0  0  0  0  0  0  0  0  0  0  0
  5  2  1  0
  6  3  1  0
  8  3  1  0
  9  8  1  0
  9  1  1  0
 10  4  1  0
 12  5  1  0
 12 10  1  0
 13 11  1  0
 13  4  1  0
 14 11  1  0
  3 15  1  1
 16  8  1  0
 16  7  1  0
 17  7  1  0
 18  7  1  0
 18  2  1  0
 19  6  1  0
 19  1  1  0
 20  2  1  0
 20 14  1  0
 20 10  1  0
 21 11  1  0
M  END
$$$$

     RDKit          3D

 18 19  0  0  0  0  0  0  0  0999 V2000
   11.0890    0.3540   23.6740 C   0  0  0  0  0  0  0  0  0  0  0  0
    6.5830    0.5850   17.3890 N   0  0  0  0  0  0  0  0  0  0  0  0
   11.4860   -1.1650   21.9000 C   0  0  0  0  0  0  0  0  0  0  0  0
   12.3940    0.6120   23.8370 N   0  0  0  0  0  0  0  0  0  0  0  0
    5.5780    0.8180   20.0050 C   0  0  0  0  0  0  0  0  0  0  0  0
   12.8320   -0.9220   22.0650 C   0  0  1  0  0  0  0  0  0  0  0  0
    5.0600    1.0110   21.4070 C   0  0  0  0  0  0  0  0  0  0  0  0
   10.5780   -0.5090   22.7200 C   0  0  0  0  0  0  0  0  0  0  0  0
    4.9440    1.4250   18.9260 C   0  0  0  0  0  0  0  0  0  0  0  0
    8.5730   -0.0050   21.3130 C   0  0  0  0  0  0  0  0  0  0  0  0
    7.4440   -0.5270   20.7990 N   0  0  0  0  0  0  0  0  0  0  0  0
    9.1390    0.9730   20.8400 O   0  0  0  0  0  0  0  0  0  0  0  0
    6.7370    0.0660   19.7330 C   0  0  2  0  0  0  0  0  0  0  0  0
    9.0900   -0.7060   22.5540 C   0  0  0  0  0  0  0  0  0  0  0  0
    7.1940   -0.0180   18.4160 C   0  0  0  0  0  0  0  0  0  0  0  0
   13.2580   -0.0090   23.0260 C   0  0  0  0  0  0  0  0  0  0  0  0
    5.4700    1.2810   17.6560 C   0  0  0  0  0  0  0  0  0  0  0  0
   13.9820   -1.8490   21.1430 Cl  0  0  0  0  0  0  0  0  0  0  0  0
  4  1  1  0
  6  3  1  0
  7  5  1  0
  8  3  1  0
  8  1  1  0
  9  5  1  0
 11 10  1  0
 12 10  1  0
 13 11  1  1
 13  5  1  0
 14 10  1  0
 14  8  1  0
 15 13  1  0
 15  2  1  0
 16  6  1  0
 16  4  1  0
 17  9  1  0
 17  2  1  0
  6 18  1  1
M  END
$$$$

     RDKit          3D

 21 23  0  0  0  0  0  0  0  0999 V2000
    6.5000    0.5960   17.4450 N   0  0  0  0  0  0  0  0  0  0  0  0
    9.8920   -0.7160   23.3030 N   0  0  0  0  0  0  0  0  0  0  0  0
    5.5040    0.7540   20.0680 C   0  0  0  0  0  0  0  0  0  0  0  0
   13.1840    0.5030   23.8960 C   0  0  0  0  0  0  0  0  0  0  0  0
    9.6340    0.0290   24.4300 C   0  0  0  0  0  0  0  0  0  0  0  0
    4.9120    1.4530   19.0210 C   0  0  0  0  0  0  0  0  0  0  0  0
    8.4340   -0.4240   21.3620 C   0  0  0  0  0  0  0  0  0  0  0  0
    6.6190   -0.0490   19.7600 C   0  0  0  0  0  0  0  0  0  0  0  0
    7.0730   -0.0890   18.4400 C   0  0  0  0  0  0  0  0  0  0  0  0
   11.8270    0.1930   24.0090 C   0  0  1  0  0  0  0  0  0  0  0  0
   13.3320   -0.8700   21.9670 C   0  0  0  0  0  0  0  0  0  0  0  0
   14.1000   -1.4530   21.0080 F   0  0  0  0  0  0  0  0  0  0  0  0
   10.7710    0.5950   24.8910 C   0  0  0  0  0  0  0  0  0  0  0  0
   13.9400   -0.0140   22.8580 C   0  0  0  0  0  0  0  0  0  0  0  0
   11.9980   -1.2050   22.0130 C   0  0  0  0  0  0  0  0  0  0  0  0
    4.9910    0.9020   21.4780 C   0  0  0  0  0  0  0  0  0  0  0  0
    7.2670   -0.7730   20.7850 N   0  0  0  0  0  0  0  0  0  0  0  0
    9.0770    0.5820   21.0620 O   0  0  0  0  0  0  0  0  0  0  0  0
    8.8850   -1.3620   22.4680 C   0  0  0  0  0  0  0  0  0  0  0  0
    5.4370    1.3500   17.7480 C   0  0  0  0  0  0  0  0  0  0  0  0
   11.2480   -0.6440   23.0390 C   0  0  0  0  0  0  0  0  0  0  0  0
  5  2  1  0
  6  3  1  0
  8  3  1  0
  9  8  1  0
  9  1  1  0
 10  4  1  6
 12 11  1  0
 13  5  1  0
 13 10  1  0
 14 11  1  0
 14  4  1  0
 15 11  1  0
 16  3  1  0
 17  8  1  0
 17  7  1  0
 18  7  1  0
 19  7  1  0
 19  2  1  0
 20  6  1  0
 20  1  1  0
 21  2  1  0
 21 15  1  0
 21 10  1  0
M  END
$$$$

     RDKit          3D

 23 25  0  0  0  0  0  0  0  0999 V2000
    6.6010    0.4720   17.5540 N   0  0  0  0  0  0  0  0  0  0  0  0
   12.0900    4.6580   22.9430 N   0  0  0  0  0  0  0  0  0  0  0  0
    5.7200    0.5630   20.2230 C   0  0  1  0  0  0  0  0  0  0  0  0
   13.6600    0.3350   22.5470 C   0  0  0  0  0  0  0  0  0  0  0  0
   12.8860    2.4120   23.5430 O   0  0  0  0  0  0  0  0  0  0  0  0
   10.9960   -0.5190   22.5740 C   0  0  2  0  0  0  0  0  0  0  0  0
    4.9970    1.1630   19.1960 C   0  0  0  0  0  0  0  0  0  0  0  0
   11.3530    0.6910   23.1600 C   0  0  0  0  0  0  0  0  0  0  0  0
    8.8100   -0.0730   21.4100 C   0  0  0  0  0  0  0  0  0  0  0  0
    6.9110   -0.1020   19.8700 C   0  0  1  0  0  0  0  0  0  0  0  0
    7.2970   -0.1220   18.5300 C   0  0  0  0  0  0  0  0  0  0  0  0
   12.6440    3.3690   22.4940 C   0  0  2  0  0  0  0  0  0  0  0  0
   13.3110   -0.8860   21.9960 C   0  0  0  0  0  0  0  0  0  0  0  0
   11.9900   -1.3070   22.0100 C   0  0  0  0  0  0  0  0  0  0  0  0
   12.6700    1.1230   23.1130 C   0  0  1  0  0  0  0  0  0  0  0  0
   13.9730    4.0990   22.2760 C   0  0  0  0  0  0  0  0  0  0  0  0
    5.2670    0.6890   21.6540 C   0  0  0  0  0  0  0  0  0  0  0  0
    7.7210   -0.6670   20.8800 N   0  0  0  0  0  0  0  0  0  0  0  0
    9.1890    1.0480   21.0860 O   0  0  0  0  0  0  0  0  0  0  0  0
   13.3760    6.5660   22.4610 O   0  0  0  0  0  0  0  0  0  0  0  0
    9.5370   -0.9020   22.4520 C   0  0  0  0  0  0  0  0  0  0  0  0
    5.4690    1.0970   17.9000 C   0  0  0  0  0  0  0  0  0  0  0  0
   13.1690    5.3590   22.5490 C   0  0  0  0  0  0  0  0  0  0  0  0
  7  3  1  0
  8  6  1  0
 10  3  1  0
 11 10  1  0
 11  1  1  0
 12  5  1  1
 12  2  1  0
 13  4  1  0
 14 13  1  0
 14  6  1  0
 15  8  1  0
 15  5  1  6
 15  4  1  0
 16 12  1  0
  3 17  1  1
 10 18  1  1
 18  9  1  0
 19  9  1  0
 21  9  1  0
  6 21  1  6
 22  7  1  0
 22  1  1  0
 23 16  1  0
 23  2  1  0
 23 20  1  0
M  END
$$$$

     RDKit          3D

 22 24  0  0  0  0  0  0  0  0999 V2000
    6.7540    0.5180   17.5920 N   0  0  0  0  0  0  0  0  0  0  0  0
    5.6330    0.6720   20.1650 C   0  0  1  0  0  0  0  0  0  0  0  0
   10.5450   -0.4820   22.9570 C   0  0  0  0  0  0  0  0  0  0  0  0
    6.7170   -2.5300   24.5350 O   0  0  0  0  0  0  0  0  0  0  0  0
    8.2000   -0.5380   24.1750 C   0  0  0  0  0  0  0  0  0  0  0  0
    5.0350    1.2910   19.0740 C   0  0  0  0  0  0  0  0  0  0  0  0
   11.4460   -1.1860   22.1650 C   0  0  0  0  0  0  0  0  0  0  0  0
    8.5690   -0.1250   21.5640 C   0  0  0  0  0  0  0  0  0  0  0  0
    6.8130   -0.0600   19.9230 C   0  0  1  0  0  0  0  0  0  0  0  0
    7.3250   -0.1080   18.6270 C   0  0  0  0  0  0  0  0  0  0  0  0
   12.3720    0.8450   23.8160 C   0  0  0  0  0  0  0  0  0  0  0  0
    8.6800   -2.3230   22.9860 C   0  0  0  0  0  0  0  0  0  0  0  0
    7.6430   -1.9410   24.0260 C   0  0  0  0  0  0  0  0  0  0  0  0
   11.0200    0.5300   23.7870 C   0  0  0  0  0  0  0  0  0  0  0  0
   13.2690    0.1450   23.0220 C   0  0  0  0  0  0  0  0  0  0  0  0
    5.0750    0.8530   21.5550 C   0  0  0  0  0  0  0  0  0  0  0  0
    7.4770   -0.6760   21.0040 N   0  0  0  0  0  0  0  0  0  0  0  0
    9.1360    0.8610   21.1060 O   0  0  0  0  0  0  0  0  0  0  0  0
    9.0530   -0.7880   22.8660 C   0  0  1  0  0  0  0  0  0  0  0  0
    5.6250    1.1970   17.8270 C   0  0  0  0  0  0  0  0  0  0  0  0
   12.7880   -0.8680   22.2130 C   0  0  0  0  0  0  0  0  0  0  0  0
   13.9030   -1.7980   21.2560 Cl  0  0  0  0  0  0  0  0  0  0  0  0
  6  2  1  0
  7  3  1  0
  9  2  1  0
 10  9  1  0
 10  1  1  0
 13 12  1  0
 13  5  1  0
 13  4  1  0
 14  3  1  0
 14 11  1  0
 15 11  1  0
  2 16  1  1
  9 17  1  1
 17  8  1  0
 18  8  1  0
 19  8  1  6
 19 12  1  0
 19  5  1  0
 19  3  1  0
 20  6  1  0
 20  1  1  0
 21 15  1  0
 21  7  1  0
 22 21  1  0
M  END
$$$$

     RDKit          3D

 24 26  0  0  0  0  0  0  0  0999 V2000
    6.5280    0.6100   17.2900 N   0  0  0  0  0  0  0  0  0  0  0  0
   11.9050    4.7300   22.2560 N   0  0  0  0  0  0  0  0  0  0  0  0
    5.4980    0.7840   19.8970 C   0  0  1  0  0  0  0  0  0  0  0  0
   13.2160    0.5660   22.7210 C   0  0  0  0  0  0  0  0  0  0  0  0
   12.5470    2.7190   23.5250 O   0  0  0  0  0  0  0  0  0  0  0  0
   10.5260   -0.1830   22.6440 C   0  0  2  0  0  0  0  0  0  0  0  0
    4.8770    1.4220   18.8270 C   0  0  0  0  0  0  0  0  0  0  0  0
   10.8910    1.0720   23.1200 C   0  0  0  0  0  0  0  0  0  0  0  0
    8.4650    0.1710   21.2640 C   0  0  0  0  0  0  0  0  0  0  0  0
    6.6710    0.0500   19.6210 C   0  0  1  0  0  0  0  0  0  0  0  0
    7.1300   -0.0150   18.3070 C   0  0  0  0  0  0  0  0  0  0  0  0
   12.8130    3.5480   22.3840 C   0  0  2  0  0  0  0  0  0  0  0  0
   12.8360   -0.6860   22.2820 C   0  0  0  0  0  0  0  0  0  0  0  0
   11.5130   -1.0710   22.2360 C   0  0  0  0  0  0  0  0  0  0  0  0
   12.2260    1.4400   23.1370 C   0  0  0  0  0  0  0  0  0  0  0  0
   13.8940    4.5470   22.8080 C   0  0  0  0  0  0  0  0  0  0  0  0
    4.9570    0.9350   21.2960 C   0  0  0  0  0  0  0  0  0  0  0  0
    7.4350   -0.4840   20.6850 N   0  0  0  0  0  0  0  0  0  0  0  0
    8.8760    1.2600   20.8770 O   0  0  0  0  0  0  0  0  0  0  0  0
   13.0230    6.7700   21.9330 O   0  0  0  0  0  0  0  0  0  0  0  0
    9.0670   -0.5320   22.4650 C   0  0  0  0  0  0  0  0  0  0  0  0
    5.4230    1.3170   17.5630 C   0  0  0  0  0  0  0  0  0  0  0  0
   12.9340    5.5970   22.2780 C   0  0  0  0  0  0  0  0  0  0  0  0
   14.0640   -1.8280   21.8170 Cl  0  0  0  0  0  0  0  0  0  0  0  0
  7  3  1  0
  8  6  1  0
 10  3  1  0
 11 10  1  0
 11  1  1  0
 12  5  1  1
 12  2  1  0
 13  4  1  0
 14  6  1  0
 14 13  1  0
 15  8  1  0
 15  5  1  0
 15  4  1  0
 16 12  1  0
  3 17  1  1
 10 18  1  1
 18  9  1  0
 19  9  1  0
 21  9  1  0
  6 21  1  6
 22  7  1  0
 22  1  1  0
 23 16  1  0
 23  2  1  0
 23 20  1  0
 24 13  1  0
M  END
$$$$

     RDKit          3D

 23 25  0  0  0  0  0  0  0  0999 V2000
    6.5150    0.0690   21.0510 N   0  0  0  0  0  0  0  0  0  0  0  0
    7.9350   -0.7800   22.5920 N   0  0  0  0  0  0  0  0  0  0  0  0
   13.9560   -2.0660   24.8810 C   0  0  0  0  0  0  0  0  0  0  0  0
    6.0480    0.3370   19.7520 C   0  0  1  0  0  0  0  0  0  0  0  0
    8.0710    0.5380   25.8150 O   0  0  0  0  0  0  0  0  0  0  0  0
   11.5130   -1.8150   23.5560 C   0  0  2  0  0  0  0  0  0  0  0  0
    4.8850    1.0840   19.6240 C   0  0  0  0  0  0  0  0  0  0  0  0
    9.0860   -0.8980   23.4970 C   0  0  1  0  0  0  0  0  0  0  0  0
    8.4990    1.2610   24.6480 C   0  0  0  0  0  0  0  0  0  0  0  0
    6.8350    0.1610   18.6170 C   0  0  0  0  0  0  0  0  0  0  0  0
    5.4430    1.4530   17.3490 C   0  0  0  0  0  0  0  0  0  0  0  0
   12.9400   -2.9590   25.1340 C   0  0  0  0  0  0  0  0  0  0  0  0
   12.5530   -0.9300   23.3010 C   0  0  0  0  0  0  0  0  0  0  0  0
    9.5730    0.5110   23.8770 C   0  0  0  0  0  0  0  0  0  0  0  0
   11.7240   -2.8350   24.4770 C   0  0  0  0  0  0  0  0  0  0  0  0
   13.7630   -1.0510   23.9650 C   0  0  0  0  0  0  0  0  0  0  0  0
    8.5970   -1.6120   24.7670 C   0  0  0  0  0  0  0  0  0  0  0  0
    7.8140   -0.0530   21.4630 C   0  0  2  0  0  0  0  0  0  0  0  0
    6.5480    0.7020   17.4310 N   0  0  0  0  0  0  0  0  0  0  0  0
    8.7620    0.5020   20.8990 O   0  0  0  0  0  0  0  0  0  0  0  0
   10.2070   -1.7070   22.8060 C   0  0  0  0  0  0  0  0  0  0  0  0
    4.5860    1.6660   18.4070 C   0  0  0  0  0  0  0  0  0  0  0  0
    7.5580   -0.7660   25.4790 C   0  0  0  0  0  0  0  0  0  0  0  0
  4  1  1  1
  7  4  1  0
  8  2  1  0
  9  5  1  0
 10  4  1  0
 12  3  1  0
 13  6  1  0
 14  9  1  0
 14  8  1  0
 15 12  1  0
 15  6  1  0
 16 13  1  0
 16  3  1  0
 17  8  1  0
 18  1  1  0
 18  2  1  0
 19 11  1  0
 19 10  1  0
 18 20  1  1
  8 21  1  6
  6 21  1  6
 22 11  1  0
 22  7  1  0
 23 17  1  0
 23  5  1  0
M  END
$$$$

     RDKit          3D

 17 19  0  0  0  0  0  0  0  0999 V2000
    9.2210    0.8630   20.9830 O   0  0  0  0  0  0  0  0  0  0  0  0
    8.6110   -0.0820   21.4710 C   0  0  0  0  0  0  0  0  0  0  0  0
    9.0620   -0.7430   22.7500 C   0  0  0  0  0  0  0  0  0  0  0  0
   10.4100   -1.4460   22.6440 C   0  0  1  0  0  0  0  0  0  0  0  0
   11.6750   -0.5920   22.3890 C   0  0  0  0  0  0  0  0  0  0  0  0
   12.3870   -1.2790   23.5680 C   0  0  2  0  0  0  0  0  0  0  0  0
   13.4220   -0.7310   24.4920 C   0  0  0  0  0  0  0  0  0  0  0  0
   13.7420   -1.9080   23.6090 C   0  0  0  0  0  0  0  0  0  0  0  0
   11.0330   -1.8760   23.9920 C   0  0  0  0  0  0  0  0  0  0  0  0
    7.4680   -0.5750   20.9640 N   0  0  0  0  0  0  0  0  0  0  0  0
    6.7310   -0.0090   19.9010 C   0  0  0  0  0  0  0  0  0  0  0  0
    5.5740    0.7390   20.1790 C   0  0  0  0  0  0  0  0  0  0  0  0
    5.0750    0.9440   21.5870 C   0  0  0  0  0  0  0  0  0  0  0  0
    7.1510   -0.1330   18.5760 C   0  0  0  0  0  0  0  0  0  0  0  0
    6.5060    0.4270   17.5470 N   0  0  0  0  0  0  0  0  0  0  0  0
    5.4020    1.1320   17.8230 C   0  0  0  0  0  0  0  0  0  0  0  0
    4.9120    1.3130   19.1010 C   0  0  0  0  0  0  0  0  0  0  0  0
  2  1  1  0
  3  2  1  0
  4  3  1  1
  5  4  1  0
  6  5  1  6
  7  6  1  0
  8  7  1  0
  8  6  1  0
  9  4  1  0
  9  6  1  0
 10  2  1  0
 11 10  1  0
 12 11  1  0
 13 12  1  0
 14 11  1  0
 15 14  1  0
 16 15  1  0
 17 16  1  0
 17 12  1  0
M  END
$$$$

     RDKit          3D

 20 21  0  0  0  0  0  0  0  0999 V2000
    6.5860    0.4940   17.2880 N   0  0  0  0  0  0  0  0  0  0  0  0
    5.6370    0.6650   19.8880 C   0  0  0  0  0  0  0  0  0  0  0  0
   13.1320    0.0470   23.2030 C   0  0  0  0  0  0  0  0  0  0  0  0
    8.9150    1.0860   21.0760 O   0  0  0  0  0  0  0  0  0  0  0  0
   10.4000   -0.4960   22.9790 C   0  0  1  0  0  0  0  0  0  0  0  0
    4.9610    1.3070   18.8610 C   0  0  0  0  0  0  0  0  0  0  0  0
    8.4240    0.0170   21.4300 C   0  0  0  0  0  0  0  0  0  0  0  0
    6.8020   -0.0800   19.6140 C   0  0  1  0  0  0  0  0  0  0  0  0
    7.2190   -0.1280   18.2870 C   0  0  0  0  0  0  0  0  0  0  0  0
   12.2170    0.7160   24.0010 C   0  0  0  0  0  0  0  0  0  0  0  0
   11.3170   -1.1920   22.2010 C   0  0  0  0  0  0  0  0  0  0  0  0
   10.8620    0.4370   23.8970 C   0  0  0  0  0  0  0  0  0  0  0  0
   12.6640   -0.9210   22.3350 C   0  0  2  0  0  0  0  0  0  0  0  0
    4.1090    1.4420   21.5650 C   0  0  0  0  0  0  0  0  0  0  0  0
    7.4790   -0.6410   20.7190 N   0  0  0  0  0  0  0  0  0  0  0  0
    5.2910    0.7190   21.2100 O   0  0  0  0  0  0  0  0  0  0  0  0
    8.3940   -1.9560   22.9000 O   0  0  0  0  0  0  0  0  0  0  0  0
    8.9150   -0.6450   22.7150 C   0  0  1  0  0  0  0  0  0  0  0  0
   13.9120   -1.9930   21.3880 Br  0  0  0  0  0  0  0  0  0  0  0  0
    5.4820    1.1910   17.5870 C   0  0  0  0  0  0  0  0  0  0  0  0
  6  2  1  0
  7  4  1  0
  8  2  1  0
  9  8  1  0
  9  1  1  0
 10  3  1  0
  5 11  1  6
 12  5  1  0
 12 10  1  0
 13 11  1  0
 13  3  1  0
  8 15  1  1
 15  7  1  0
 16 14  1  0
 16  2  1  0
 18  7  1  0
 18 17  1  6
 18  5  1  0
 13 19  1  1
 20  6  1  0
 20  1  1  0
M  END
$$$$

     RDKit          3D

 21 22  0  0  0  0  0  0  0  0999 V2000
    7.7770   -3.0880   23.4820 N   0  0  0  0  0  0  0  0  0  0  0  0
    6.6050    0.6600   17.4810 N   0  0  0  0  0  0  0  0  0  0  0  0
    5.4340    1.1880   17.8550 C   0  0  0  0  0  0  0  0  0  0  0  0
    9.2240   -0.4410   23.8230 C   0  0  0  0  0  0  0  0  0  0  0  0
    6.1670   -2.1840   21.5960 O   0  0  0  0  0  0  0  0  0  0  0  0
    7.3140   -1.7590   21.5120 C   0  0  2  0  0  0  0  0  0  0  0  0
   10.2340    0.3610   24.3460 C   0  0  0  0  0  0  0  0  0  0  0  0
    9.5010   -1.3990   22.8430 C   0  0  1  0  0  0  0  0  0  0  0  0
   10.8160   -1.5260   22.3920 C   0  0  0  0  0  0  0  0  0  0  0  0
   11.8130   -0.7480   22.9480 C   0  0  2  0  0  0  0  0  0  0  0  0
    5.7840    0.6710   20.1720 C   0  0  2  0  0  0  0  0  0  0  0  0
    7.3710    0.1210   18.4370 C   0  0  0  0  0  0  0  0  0  0  0  0
    7.0100    0.0730   19.7850 C   0  0  2  0  0  0  0  0  0  0  0  0
    4.9900    1.2110   19.1640 C   0  0  0  0  0  0  0  0  0  0  0  0
    5.4440    0.9420   21.6160 C   0  0  0  0  0  0  0  0  0  0  0  0
    7.5120    0.7530   25.0050 C   0  0  0  0  0  0  0  0  0  0  0  0
    7.7220   -0.8390   20.6090 N   0  0  0  0  0  0  0  0  0  0  0  0
    7.9120   -0.3620   24.2090 O   0  0  0  0  0  0  0  0  0  0  0  0
    8.4280   -2.3760   22.3730 C   0  0  1  0  0  0  0  0  0  0  0  0
   13.6300   -1.1080   22.4960 Br  0  0  0  0  0  0  0  0  0  0  0  0
   11.5370    0.2030   23.9060 C   0  0  0  0  0  0  0  0  0  0  0  0
  3  2  1  0
  6  5  1  6
  7  4  1  0
  8  4  1  0
  8  9  1  1
 10  9  1  0
 12  2  1  0
 13 12  1  0
 13 11  1  0
 14  3  1  0
 14 11  1  0
 11 15  1  1
 13 17  1  6
 17  6  1  0
 18 16  1  0
 18  4  1  0
 19  6  1  0
 19  8  1  0
 19  1  1  1
 10 20  1  1
 21  7  1  0
 21 10  1  0
M  END
$$$$

     RDKit          3D

 21 22  0  0  0  0  0  0  0  0999 V2000
   14.0090   -1.8010   21.4860 Cl  0  0  0  0  0  0  0  0  0  0  0  0
   12.9100   -0.6930   22.2530 C   0  0  0  0  0  0  0  0  0  0  0  0
   13.3970    0.4930   22.7660 C   0  0  0  0  0  0  0  0  0  0  0  0
   12.5040    1.3820   23.3440 C   0  0  0  0  0  0  0  0  0  0  0  0
   11.1560    1.0740   23.4130 C   0  0  0  0  0  0  0  0  0  0  0  0
   11.5680   -1.0170   22.3110 C   0  0  0  0  0  0  0  0  0  0  0  0
   10.6720   -0.1260   22.8950 C   0  0  2  0  0  0  0  0  0  0  0  0
    9.1720   -0.4280   22.9080 C   0  0  1  0  0  0  0  0  0  0  0  0
    8.9810   -1.8400   22.8820 O   0  0  0  0  0  0  0  0  0  0  0  0
    8.4960    0.1400   24.1760 C   0  0  0  0  0  0  0  0  0  0  0  0
    7.0650   -0.3310   24.3940 C   0  0  0  0  0  0  0  0  0  0  0  0
    8.5500    0.2320   21.6330 C   0  0  0  0  0  0  0  0  0  0  0  0
    8.9880    1.2980   21.2320 O   0  0  0  0  0  0  0  0  0  0  0  0
    7.5070   -0.4020   21.0520 N   0  0  0  0  0  0  0  0  0  0  0  0
    6.7550    0.1140   19.9680 C   0  0  1  0  0  0  0  0  0  0  0  0
    5.6210    0.9110   20.2250 C   0  0  0  0  0  0  0  0  0  0  0  0
    5.1130    1.1520   21.6230 C   0  0  0  0  0  0  0  0  0  0  0  0
    4.9880    1.4940   19.1320 C   0  0  0  0  0  0  0  0  0  0  0  0
    5.4850    1.2840   17.8630 C   0  0  0  0  0  0  0  0  0  0  0  0
    6.5490    0.5150   17.6040 N   0  0  0  0  0  0  0  0  0  0  0  0
    7.1570   -0.0620   18.6450 C   0  0  0  0  0  0  0  0  0  0  0  0
  2  1  1  0
  3  2  1  0
  4  3  1  0
  5  4  1  0
  6  2  1  0
  7  6  1  6
  7  5  1  0
  8  7  1  0
  8  9  1  6
 10  8  1  0
 11 10  1  0
 12  8  1  0
 13 12  1  0
 14 12  1  0
 15 14  1  1
 16 15  1  0
 17 16  1  0
 18 16  1  0
 19 18  1  0
 20 19  1  0
 21 20  1  0
 21 15  1  0
M  END
$$$$

     RDKit          3D

 23 24  0  0  0  0  0  0  0  0999 V2000
    6.7080   -5.3480   21.8770 S   0  0  2  0  0  0  0  0  0  0  0  0
    7.6150   -4.0290   22.1100 N   0  0  0  0  0  0  0  0  0  0  0  0
    6.7820    0.5380   17.6120 N   0  0  0  0  0  0  0  0  0  0  0  0
    7.8450   -3.5240   23.4730 C   0  0  0  0  0  0  0  0  0  0  0  0
   12.0020   -1.3060   21.9810 C   0  0  0  0  0  0  0  0  0  0  0  0
    6.3180   -5.3460   20.4990 O   0  0  0  0  0  0  0  0  0  0  0  0
    5.6650    1.0590   18.1380 C   0  0  0  0  0  0  0  0  0  0  0  0
    9.1350   -2.7300   23.6540 C   0  0  0  0  0  0  0  0  0  0  0  0
    6.2930    0.4450   20.3500 C   0  0  0  0  0  0  0  0  0  0  0  0
    7.4570   -0.1140   19.8310 C   0  0  0  0  0  0  0  0  0  0  0  0
    8.4740   -0.9550   21.9670 C   0  0  0  0  0  0  0  0  0  0  0  0
   10.8480   -1.1020   22.7320 C   0  0  0  0  0  0  0  0  0  0  0  0
   13.1500    0.4050   23.2120 C   0  0  0  0  0  0  0  0  0  0  0  0
    7.6520   -0.0380   18.4520 C   0  0  0  0  0  0  0  0  0  0  0  0
   13.1440   -0.5560   22.2170 C   0  0  0  0  0  0  0  0  0  0  0  0
   12.0140    0.6090   23.9740 C   0  0  0  0  0  0  0  0  0  0  0  0
    5.2670   -5.1760   22.8580 C   0  0  0  0  0  0  0  0  0  0  0  0
    8.4370   -0.7680   20.6230 N   0  0  0  0  0  0  0  0  0  0  0  0
    7.4570   -6.4580   22.3790 O   0  0  0  0  0  0  0  0  0  0  0  0
    7.6860   -0.4280   22.7510 O   0  0  0  0  0  0  0  0  0  0  0  0
    5.3800    1.0370   19.4920 C   0  0  0  0  0  0  0  0  0  0  0  0
    9.5820   -1.8970   22.4400 C   0  0  1  0  0  0  0  0  0  0  0  0
   10.8710   -0.1440   23.7380 C   0  0  0  0  0  0  0  0  0  0  0  0
  2  1  1  0
  4  2  1  0
  6  1  1  0
  7  3  1  0
  8  4  1  0
 10  9  1  0
 12  5  1  0
 14 10  1  0
 14  3  1  0
 15 13  1  0
 15  5  1  0
 16 13  1  0
  1 17  1  1
 18 10  1  0
 18 11  1  0
 19  1  1  0
 20 11  1  0
 21  9  1  0
 21  7  1  0
 22 12  1  0
 22 11  1  0
 22  8  1  1
 23 12  1  0
 23 16  1  0
M  END
$$$$

     RDKit          3D

 22 25  0  0  0  0  0  0  0  0999 V2000
    5.6140    0.5500   19.2770 N   0  0  0  0  0  0  0  0  0  0  0  0
    7.2580   -0.1310   20.8290 N   0  0  0  0  0  0  0  0  0  0  0  0
    6.7810    0.4840   17.4190 N   0  0  0  0  0  0  0  0  0  0  0  0
    4.8730    2.0630   21.1720 C   0  0  0  0  0  0  0  0  0  0  0  0
   12.8900   -0.0140   23.4470 C   0  0  0  0  0  0  0  0  0  0  0  0
    9.2270    0.8910   20.9820 O   0  0  0  0  0  0  0  0  0  0  0  0
    6.9050    0.3170   19.5900 C   0  0  1  0  0  0  0  0  0  0  0  0
   11.9260    0.5830   24.2390 C   0  0  0  0  0  0  0  0  0  0  0  0
    8.7130   -0.7510   22.6790 C   0  0  2  0  0  0  0  0  0  0  0  0
    7.8220   -0.2210   23.8240 C   0  0  0  0  0  0  0  0  0  0  0  0
    8.3430    1.1080   24.3040 C   0  0  0  0  0  0  0  0  0  0  0  0
    4.5780    0.9260   20.2570 C   0  0  1  0  0  0  0  0  0  0  0  0
   10.1850   -0.5530   22.9860 C   0  0  1  0  0  0  0  0  0  0  0  0
    5.5910    0.6470   17.9180 C   0  0  0  0  0  0  0  0  0  0  0  0
    3.8590    2.2180   20.0840 C   0  0  0  0  0  0  0  0  0  0  0  0
   11.1720   -1.1700   22.2190 C   0  0  0  0  0  0  0  0  0  0  0  0
   12.5010   -0.8840   22.4540 C   0  0  0  0  0  0  0  0  0  0  0  0
    7.6360    0.2750   18.4870 N   0  0  0  0  0  0  0  0  0  0  0  0
    9.6940    1.0010   24.8000 O   0  0  0  0  0  0  0  0  0  0  0  0
    8.4880   -0.0100   21.3590 C   0  0  1  0  0  0  0  0  0  0  0  0
   10.5840    0.3240   23.9980 C   0  0  0  0  0  0  0  0  0  0  0  0
   13.7150   -1.6470   21.4650 Cl  0  0  0  0  0  0  0  0  0  0  0  0
  7  2  1  6
  7  1  1  0
  8  5  1  0
  9 10  1  1
 11 10  1  0
 12  4  1  0
 12  1  1  6
 13  9  1  0
 14  3  1  0
 14  1  1  0
 15 12  1  0
 15  4  1  0
 13 16  1  6
 17 16  1  0
 17  5  1  0
 18  7  1  0
 18  3  1  0
 19 11  1  0
 20  6  1  1
 20  2  1  0
 20  9  1  0
 21 19  1  0
 21 13  1  0
 21  8  1  0
 22 17  1  0
M  END
$$$$

     RDKit          3D

 19 20  0  0  0  0  0  0  0  0999 V2000
    7.4920   -0.5590   20.9080 N   0  0  0  0  0  0  0  0  0  0  0  0
   12.4070    0.7870   23.7900 N   0  0  0  0  0  0  0  0  0  0  0  0
    9.1340   -0.8210   22.6840 C   0  0  1  0  0  0  0  0  0  0  0  0
   13.2920    0.1150   23.0420 C   0  0  0  0  0  0  0  0  0  0  0  0
    5.1220    1.0180   21.5240 C   0  0  0  0  0  0  0  0  0  0  0  0
    8.5880   -0.0320   21.4910 C   0  0  0  0  0  0  0  0  0  0  0  0
    4.9430    1.3450   19.0350 C   0  0  0  0  0  0  0  0  0  0  0  0
    5.4690    1.2080   17.7660 C   0  0  0  0  0  0  0  0  0  0  0  0
    7.2450   -0.0120   18.5310 C   0  0  0  0  0  0  0  0  0  0  0  0
   11.1120    0.4600   23.6740 C   0  0  0  0  0  0  0  0  0  0  0  0
   11.5570   -1.2330   22.0800 C   0  0  0  0  0  0  0  0  0  0  0  0
   10.6230   -0.5290   22.8300 C   0  0  0  0  0  0  0  0  0  0  0  0
   12.8930   -0.9100   22.1880 C   0  0  0  0  0  0  0  0  0  0  0  0
    8.3310   -0.5660   23.9600 C   0  0  0  0  0  0  0  0  0  0  0  0
    6.6090    0.5580   17.5030 N   0  0  0  0  0  0  0  0  0  0  0  0
    9.1230    0.9950   21.0970 O   0  0  0  0  0  0  0  0  0  0  0  0
    5.6050    0.7750   20.1170 C   0  0  1  0  0  0  0  0  0  0  0  0
    6.7880    0.0550   19.8470 C   0  0  0  0  0  0  0  0  0  0  0  0
   14.0630   -1.8090   21.2600 Cl  0  0  0  0  0  0  0  0  0  0  0  0
  4  2  1  0
  6  1  1  0
  6  3  1  0
  8  7  1  0
 10  2  1  0
 12  3  1  0
 12 11  1  0
 12 10  1  0
 13 11  1  0
 13  4  1  0
  3 14  1  1
 15  9  1  0
 15  8  1  0
 16  6  1  0
 17  7  1  0
 17  5  1  1
 18 17  1  0
 18  9  1  0
 18  1  1  0
 19 13  1  0
M  END
$$$$

     RDKit          3D

 22 25  0  0  0  0  0  0  0  0999 V2000
    8.5410    0.9130   21.0870 O   0  0  0  0  0  0  0  0  0  0  0  0
    8.2120   -0.2710   21.1220 C   0  0  2  0  0  0  0  0  0  0  0  0
    8.7340   -1.2340   22.1880 C   0  0  1  0  0  0  0  0  0  0  0  0
   10.2190   -1.5760   21.9430 C   0  0  0  0  0  0  0  0  0  0  0  0
   11.1150   -0.7600   22.8410 C   0  0  0  0  0  0  0  0  0  0  0  0
   10.7410   -0.9020   24.2210 O   0  0  0  0  0  0  0  0  0  0  0  0
    8.4320   -0.6140   23.5390 C   0  0  0  0  0  0  0  0  0  0  0  0
    9.4520   -0.5090   24.4850 C   0  0  0  0  0  0  0  0  0  0  0  0
    9.2270    0.0570   25.7290 C   0  0  0  0  0  0  0  0  0  0  0  0
    7.9790    0.5700   26.0310 C   0  0  0  0  0  0  0  0  0  0  0  0
    7.1760   -0.0960   23.8610 C   0  0  0  0  0  0  0  0  0  0  0  0
    6.9750    0.4990   25.0910 C   0  0  0  0  0  0  0  0  0  0  0  0
    5.4220    1.2070   25.4510 Cl  0  0  0  0  0  0  0  0  0  0  0  0
    7.5350   -0.8620   20.1070 N   0  0  0  0  0  0  0  0  0  0  0  0
    6.7720   -0.4030   19.0860 C   0  0  1  0  0  0  0  0  0  0  0  0
    5.8220    0.5820   19.2470 N   0  0  0  0  0  0  0  0  0  0  0  0
    5.5400    1.0060   17.9800 C   0  0  0  0  0  0  0  0  0  0  0  0
    6.2260    0.3400   17.1000 N   0  0  0  0  0  0  0  0  0  0  0  0
    7.0050   -0.5760   17.7960 N   0  0  0  0  0  0  0  0  0  0  0  0
    5.1610    0.9910   20.5080 C   0  0  2  0  0  0  0  0  0  0  0  0
    3.9230    1.8160   20.4230 C   0  0  0  0  0  0  0  0  0  0  0  0
    5.2020    2.4260   20.9030 C   0  0  0  0  0  0  0  0  0  0  0  0
  2  1  1  6
  3  2  1  0
  3  4  1  6
  5  4  1  0
  6  5  1  0
  7  3  1  0
  8  7  1  0
  8  6  1  0
  9  8  1  0
 10  9  1  0
 11  7  1  0
 12 11  1  0
 12 10  1  0
 13 12  1  0
 14  2  1  0
 15 14  1  1
 16 15  1  0
 17 16  1  0
 18 17  1  0
 19 18  1  0
 19 15  1  0
 20 16  1  6
 21 20  1  0
 22 21  1  0
 22 20  1  0
M  END
$$$$

     RDKit          3D

 22 24  0  0  0  0  0  0  0  0999 V2000
    6.4820    0.4930   17.6400 N   0  0  0  0  0  0  0  0  0  0  0  0
    5.6360    0.7950   20.2890 C   0  0  2  0  0  0  0  0  0  0  0  0
   12.4510    0.5920   24.0200 C   0  0  0  0  0  0  0  0  0  0  0  0
    9.3250    1.0650   21.3070 O   0  0  0  0  0  0  0  0  0  0  0  0
    8.3040   -0.1640   24.0890 C   0  0  0  0  0  0  0  0  0  0  0  0
    4.9460    1.3890   19.2420 C   0  0  0  0  0  0  0  0  0  0  0  0
    8.7020    0.0650   21.6430 C   0  0  1  0  0  0  0  0  0  0  0  0
    6.7870    0.0570   19.9810 C   0  0  1  0  0  0  0  0  0  0  0  0
    7.1280   -0.1050   18.6420 C   0  0  0  0  0  0  0  0  0  0  0  0
   11.0950    0.3030   23.9730 C   0  0  0  0  0  0  0  0  0  0  0  0
   12.8090   -0.9360   22.2300 C   0  0  0  0  0  0  0  0  0  0  0  0
    8.9390    1.1300   24.5280 C   0  0  0  0  0  0  0  0  0  0  0  0
   13.3120   -0.0180   23.1260 C   0  0  0  0  0  0  0  0  0  0  0  0
   11.4660   -1.2440   22.1820 C   0  0  0  0  0  0  0  0  0  0  0  0
    5.0830    0.8590   21.6920 C   0  0  0  0  0  0  0  0  0  0  0  0
    7.6980   -0.4310   20.9180 N   0  0  0  0  0  0  0  0  0  0  0  0
    5.7840    1.7850   22.5090 O   0  0  0  0  0  0  0  0  0  0  0  0
   10.3160    0.9370   24.9110 O   0  0  0  0  0  0  0  0  0  0  0  0
    9.0730   -0.7490   22.8830 C   0  0  1  0  0  0  0  0  0  0  0  0
    5.4130    1.2310   17.9520 C   0  0  0  0  0  0  0  0  0  0  0  0
   10.5750   -0.5970   23.0380 C   0  0  2  0  0  0  0  0  0  0  0  0
   13.8990   -1.7370   21.1310 Cl  0  0  0  0  0  0  0  0  0  0  0  0
  6  2  1  0
  7  4  1  6
  8  2  1  0
  9  8  1  0
  9  1  1  0
 10  3  1  0
 12  5  1  0
 13 11  1  0
 13  3  1  0
 14 11  1  0
  2 15  1  6
  8 16  1  1
 16  7  1  0
 17 15  1  0
 18 12  1  0
 18 10  1  0
 19  7  1  0
 19  5  1  1
 20  6  1  0
 20  1  1  0
 21 19  1  0
 21 14  1  6
 21 10  1  0
 22 11  1  0
M  END
$$$$

     RDKit          3D

 18 19  0  0  0  0  0  0  0  0999 V2000
   13.8740   -1.8070   21.2360 Cl  0  0  0  0  0  0  0  0  0  0  0  0
   12.6620   -1.0590   22.2360 C   0  0  0  0  0  0  0  0  0  0  0  0
   13.0450   -0.1580   23.2040 C   0  0  0  0  0  0  0  0  0  0  0  0
   12.0710    0.3820   24.0290 C   0  0  0  0  0  0  0  0  0  0  0  0
   10.7360    0.0500   23.8450 C   0  0  0  0  0  0  0  0  0  0  0  0
   11.3410   -1.4070   22.0480 C   0  0  0  0  0  0  0  0  0  0  0  0
   10.3570   -0.8340   22.8450 C   0  0  2  0  0  0  0  0  0  0  0  0
    8.9000   -1.1180   22.5630 C   0  0  0  0  0  0  0  0  0  0  0  0
    8.4490   -0.3100   21.3640 C   0  0  0  0  0  0  0  0  0  0  0  0
    9.0310    0.7130   21.0220 O   0  0  0  0  0  0  0  0  0  0  0  0
    7.3530   -0.7800   20.7430 N   0  0  0  0  0  0  0  0  0  0  0  0
    6.6300   -0.1170   19.7300 C   0  0  2  0  0  0  0  0  0  0  0  0
    7.0170   -0.1460   18.3950 C   0  0  0  0  0  0  0  0  0  0  0  0
    6.3890    0.5350   17.4350 N   0  0  0  0  0  0  0  0  0  0  0  0
    5.3380    1.2860   17.7930 C   0  0  0  0  0  0  0  0  0  0  0  0
    5.5360    0.6730   20.0690 C   0  0  0  0  0  0  0  0  0  0  0  0
    4.8720    1.4040   19.0970 C   0  0  0  0  0  0  0  0  0  0  0  0
    3.7030    2.2940   19.4460 C   0  0  0  0  0  0  0  0  0  0  0  0
  2  1  1  0
  3  2  1  0
  4  3  1  0
  5  4  1  0
  6  2  1  0
  7  5  1  0
  7  6  1  0
  7  8  1  6
  9  8  1  0
 10  9  1  0
 11  9  1  0
 12 11  1  1
 13 12  1  0
 14 13  1  0
 15 14  1  0
 16 12  1  0
 17 15  1  0
 17 16  1  0
 18 17  1  0
M  END
$$$$

     RDKit          3D

 22 23  0  0  0  0  0  0  0  0999 V2000
   14.4440   -0.2990   22.8190 F   0  0  0  0  0  0  0  0  0  0  0  0
   13.5490   -1.2750   22.8350 C   0  0  2  0  0  0  0  0  0  0  0  0
   14.0550   -2.2990   23.5240 F   0  0  0  0  0  0  0  0  0  0  0  0
   13.4500   -1.6710   21.5630 F   0  0  0  0  0  0  0  0  0  0  0  0
   12.2340   -0.8110   23.4000 C   0  0  0  0  0  0  0  0  0  0  0  0
   12.1680    0.0680   24.4710 C   0  0  0  0  0  0  0  0  0  0  0  0
   10.9190    0.4400   24.9360 C   0  0  0  0  0  0  0  0  0  0  0  0
    9.7840   -0.0660   24.3210 C   0  0  0  0  0  0  0  0  0  0  0  0
   11.1480   -1.3140   22.7930 N   0  0  0  0  0  0  0  0  0  0  0  0
    9.9410   -0.9400   23.2490 C   0  0  2  0  0  0  0  0  0  0  0  0
    8.7600   -1.4790   22.4800 C   0  0  0  0  0  0  0  0  0  0  0  0
    8.3440   -0.5130   21.3900 C   0  0  0  0  0  0  0  0  0  0  0  0
    9.0060    0.4880   21.1250 O   0  0  0  0  0  0  0  0  0  0  0  0
    7.1870   -0.8280   20.7770 N   0  0  0  0  0  0  0  0  0  0  0  0
    6.5790   -0.0880   19.7400 C   0  0  0  0  0  0  0  0  0  0  0  0
    5.4360    0.6790   20.0090 C   0  0  1  0  0  0  0  0  0  0  0  0
    4.8830    0.8310   21.4090 C   0  0  0  0  0  0  0  0  0  0  0  0
    4.5300    2.2560   21.7800 C   0  0  0  0  0  0  0  0  0  0  0  0
    7.0830   -0.1010   18.4420 C   0  0  0  0  0  0  0  0  0  0  0  0
    6.5230    0.5700   17.4320 N   0  0  0  0  0  0  0  0  0  0  0  0
    5.4180    1.2770   17.6980 C   0  0  0  0  0  0  0  0  0  0  0  0
    4.8480    1.3620   18.9500 C   0  0  0  0  0  0  0  0  0  0  0  0
  2  1  1  6
  3  2  1  0
  4  2  1  0
  5  2  1  0
  6  5  1  0
  7  6  1  0
  8  7  1  0
  9  5  1  0
 10  8  1  0
 10  9  1  0
 10 11  1  6
 12 11  1  0
 13 12  1  0
 14 12  1  0
 15 14  1  0
 16 15  1  0
 16 17  1  1
 18 17  1  0
 19 15  1  0
 20 19  1  0
 21 20  1  0
 22 21  1  0
 22 16  1  0
M  END
$$$$

     RDKit          3D

 17 18  0  0  0  0  0  0  0  0999 V2000
    5.3850    1.3130   17.9440 C   0  0  0  0  0  0  0  0  0  0  0  0
    9.1390   -1.0430   22.3880 N   0  0  0  0  0  0  0  0  0  0  0  0
    6.4670    0.5950   17.6120 N   0  0  0  0  0  0  0  0  0  0  0  0
   13.0100    0.0220   23.4850 C   0  0  0  0  0  0  0  0  0  0  0  0
   11.5070   -1.3460   22.1810 C   0  0  0  0  0  0  0  0  0  0  0  0
   12.7750   -0.8860   22.4730 C   0  0  0  0  0  0  0  0  0  0  0  0
    4.8640    1.3570   19.2230 C   0  0  0  0  0  0  0  0  0  0  0  0
   11.9420    0.4400   24.2670 C   0  0  0  0  0  0  0  0  0  0  0  0
    7.4090   -0.7340   20.9160 N   0  0  0  0  0  0  0  0  0  0  0  0
    6.6340   -0.1050   19.9090 C   0  0  1  0  0  0  0  0  0  0  0  0
    9.1490    0.7400   20.9650 O   0  0  0  0  0  0  0  0  0  0  0  0
    8.6070   -0.2730   21.3910 C   0  0  0  0  0  0  0  0  0  0  0  0
    5.4960    0.6300   20.2190 C   0  0  0  0  0  0  0  0  0  0  0  0
   10.4340   -0.8620   22.9230 C   0  0  1  0  0  0  0  0  0  0  0  0
    7.0680   -0.1000   18.5840 C   0  0  0  0  0  0  0  0  0  0  0  0
   10.6570   -0.0070   23.9960 C   0  0  0  0  0  0  0  0  0  0  0  0
   14.1170   -1.4820   21.5400 Cl  0  0  0  0  0  0  0  0  0  0  0  0
  3  1  1  0
  6  5  1  0
  6  4  1  0
  7  1  1  0
  8  4  1  0
 10  9  1  1
 12 11  1  0
 12  9  1  0
 12  2  1  0
 13  7  1  0
 13 10  1  0
 14  2  1  6
 14  5  1  0
 15 10  1  0
 15  3  1  0
 16 14  1  0
 16  8  1  0
 17  6  1  0
M  END
$$$$

     RDKit          3D

 18 19  0  0  0  0  0  0  0  0999 V2000
   10.5130    0.7520   22.9580 C   0  0  0  0  0  0  0  0  0  0  0  0
    6.3510    0.5570   17.4010 N   0  0  0  0  0  0  0  0  0  0  0  0
   12.6510   -0.9380   22.5880 C   0  0  2  0  0  0  0  0  0  0  0  0
    5.2070    1.0020   19.9160 C   0  0  0  0  0  0  0  0  0  0  0  0
   12.8630    0.2950   23.1710 C   0  0  0  0  0  0  0  0  0  0  0  0
    4.5980    1.3070   21.2610 C   0  0  0  0  0  0  0  0  0  0  0  0
   10.3320   -0.4670   22.3130 C   0  0  0  0  0  0  0  0  0  0  0  0
    4.7620    1.6830   18.7880 C   0  0  0  0  0  0  0  0  0  0  0  0
    9.0730   -0.8260   21.7920 N   0  0  0  0  0  0  0  0  0  0  0  0
    6.8270   -0.6690   20.9380 C   0  0  0  0  0  0  0  0  0  0  0  0
    8.3730    1.1660   20.9490 O   0  0  0  0  0  0  0  0  0  0  0  0
    6.2460    0.0710   19.7560 C   0  0  0  0  0  0  0  0  0  0  0  0
    8.1650   -0.0140   21.2160 C   0  0  0  0  0  0  0  0  0  0  0  0
    6.7600   -0.1100   18.4840 C   0  0  0  0  0  0  0  0  0  0  0  0
   11.7800    1.1340   23.3690 C   0  0  0  0  0  0  0  0  0  0  0  0
   11.4080   -1.3280   22.1350 C   0  0  0  0  0  0  0  0  0  0  0  0
    5.3640    1.4440   17.5690 C   0  0  0  0  0  0  0  0  0  0  0  0
   13.9480   -2.0930   22.5680 Cl  0  0  0  0  0  0  0  0  0  0  0  0
  5  3  1  0
  6  4  1  0
  7  1  1  0
  8  4  1  0
  9  7  1  0
 12  4  1  0
 12 10  1  0
 13 11  1  0
 13 10  1  0
 13  9  1  0
 14 12  1  0
 14  2  1  0
 15  1  1  0
 15  5  1  0
 16  7  1  0
 16  3  1  0
 17  8  1  0
 17  2  1  0
  3 18  1  1
M  END
$$$$

     RDKit          3D

 18 19  0  0  0  0  0  0  0  0999 V2000
   13.9140   -1.8050   21.3570 Cl  0  0  0  0  0  0  0  0  0  0  0  0
   12.6810   -1.0300   22.3190 C   0  0  2  0  0  0  0  0  0  0  0  0
   13.0540   -0.1190   23.2830 C   0  0  0  0  0  0  0  0  0  0  0  0
   12.0750    0.3970   24.1210 C   0  0  0  0  0  0  0  0  0  0  0  0
   10.7480    0.0350   23.9540 C   0  0  0  0  0  0  0  0  0  0  0  0
   11.3600   -1.3930   22.1320 C   0  0  0  0  0  0  0  0  0  0  0  0
   10.3710   -0.8400   22.9430 C   0  0  2  0  0  0  0  0  0  0  0  0
    8.9110   -1.0900   22.6390 C   0  0  0  0  0  0  0  0  0  0  0  0
    8.4470   -0.2050   21.4970 C   0  0  0  0  0  0  0  0  0  0  0  0
    9.1390    0.7170   21.0730 O   0  0  0  0  0  0  0  0  0  0  0  0
    7.2300   -0.5170   20.9970 N   0  0  0  0  0  0  0  0  0  0  0  0
    6.5640    0.1230   19.9210 C   0  0  0  0  0  0  0  0  0  0  0  0
    5.4080    0.8900   20.1630 C   0  0  0  0  0  0  0  0  0  0  0  0
    4.8800    1.1180   21.5570 C   0  0  0  0  0  0  0  0  0  0  0  0
    6.9750    0.0300   18.5940 C   0  0  0  0  0  0  0  0  0  0  0  0
    6.3380    0.6020   17.5850 N   0  0  0  0  0  0  0  0  0  0  0  0
    5.2110    1.3340   17.8260 N   0  0  0  0  0  0  0  0  0  0  0  0
    4.7680    1.4680   19.0710 C   0  0  0  0  0  0  0  0  0  0  0  0
  2  1  1  1
  3  2  1  0
  4  3  1  0
  5  4  1  0
  6  2  1  0
  7  5  1  0
  7  6  1  0
  7  8  1  6
  9  8  1  0
 10  9  1  0
 11  9  1  0
 12 11  1  0
 13 12  1  0
 14 13  1  0
 15 12  1  0
 16 15  1  0
 17 16  1  0
 18 17  1  0
 18 13  1  0
M  END
$$$$

     RDKit          3D

 17 18  0  0  0  0  0  0  0  0999 V2000
   13.6630   -1.6980   21.4520 Cl  0  0  0  0  0  0  0  0  0  0  0  0
   12.4350   -0.8810   22.3760 C   0  0  0  0  0  0  0  0  0  0  0  0
   12.8100    0.0640   23.3020 C   0  0  0  0  0  0  0  0  0  0  0  0
   11.8320    0.6420   24.0960 C   0  0  0  0  0  0  0  0  0  0  0  0
   10.5000    0.3010   23.9220 C   0  0  0  0  0  0  0  0  0  0  0  0
   11.1120   -1.2300   22.1880 C   0  0  0  0  0  0  0  0  0  0  0  0
   10.1230   -0.6100   22.9470 C   0  0  2  0  0  0  0  0  0  0  0  0
    8.6670   -0.8180   22.6090 C   0  0  0  0  0  0  0  0  0  0  0  0
    8.3060   -0.0510   21.3520 C   0  0  0  0  0  0  0  0  0  0  0  0
    9.0360    0.8210   20.8830 O   0  0  0  0  0  0  0  0  0  0  0  0
    7.1200   -0.4140   20.7810 N   0  0  0  0  0  0  0  0  0  0  0  0
    6.6730    0.1090   19.5510 C   0  0  0  0  0  0  0  0  0  0  0  0
    5.6690    1.0210   19.3270 C   0  0  0  0  0  0  0  0  0  0  0  0
    4.8240    1.8180   20.2680 C   0  0  0  0  0  0  0  0  0  0  0  0
    7.1530   -0.2530   18.2920 C   0  0  0  0  0  0  0  0  0  0  0  0
    6.4840    0.3810   17.3370 N   0  0  0  0  0  0  0  0  0  0  0  0
    5.5710    1.1560   17.9930 N   0  0  0  0  0  0  0  0  0  0  0  0
  2  1  1  0
  3  2  1  0
  4  3  1  0
  5  4  1  0
  6  2  1  0
  7  5  1  0
  7  6  1  0
  7  8  1  6
  9  8  1  0
 10  9  1  0
 11  9  1  0
 12 11  1  0
 13 12  1  0
 14 13  1  0
 15 12  1  0
 16 15  1  0
 17 16  1  0
 17 13  1  0
M  END
$$$$

     RDKit          3D

 19 20  0  0  0  0  0  0  0  0999 V2000
    7.2980   -0.5040   20.9930 N   0  0  0  0  0  0  0  0  0  0  0  0
    5.3560    1.2760   17.8150 C   0  0  0  0  0  0  0  0  0  0  0  0
    8.4750   -0.0680   21.5110 C   0  0  0  0  0  0  0  0  0  0  0  0
   11.5320   -1.1260   21.9710 C   0  0  0  0  0  0  0  0  0  0  0  0
    9.1190   -0.8710   22.6260 C   0  0  0  0  0  0  0  0  0  0  0  0
   13.2800    0.1720   23.0100 C   0  0  0  0  0  0  0  0  0  0  0  0
   12.3300    0.7890   23.8090 C   0  0  0  0  0  0  0  0  0  0  0  0
   10.9910    0.4480   23.6920 C   0  0  0  0  0  0  0  0  0  0  0  0
    7.0680    0.0200   18.6550 C   0  0  0  0  0  0  0  0  0  0  0  0
    5.4470    0.9460   20.1840 C   0  0  0  0  0  0  0  0  0  0  0  0
    6.5950    0.1860   19.9550 C   0  0  1  0  0  0  0  0  0  0  0  0
    4.8190    1.4870   19.0680 C   0  0  0  0  0  0  0  0  0  0  0  0
    4.9130    1.2120   21.5690 C   0  0  0  0  0  0  0  0  0  0  0  0
    6.7250   -1.7730   21.4450 C   0  0  0  0  0  0  0  0  0  0  0  0
    6.4640    0.5590   17.5920 N   0  0  0  0  0  0  0  0  0  0  0  0
    9.0250    0.9450   21.0940 O   0  0  0  0  0  0  0  0  0  0  0  0
   12.8610   -0.7880   22.1100 C   0  0  1  0  0  0  0  0  0  0  0  0
   10.5790   -0.5120   22.7760 C   0  0  0  0  0  0  0  0  0  0  0  0
   14.0490   -1.6870   21.2150 Cl  0  0  0  0  0  0  0  0  0  0  0  0
  3  1  1  0
  5  3  1  0
  7  6  1  0
  8  7  1  0
 11 10  1  0
 11  9  1  0
 11  1  1  6
 12 10  1  0
 12  2  1  0
 13 10  1  0
 14  1  1  0
 15  2  1  0
 15  9  1  0
 16  3  1  0
 17  6  1  0
 17  4  1  0
 18  5  1  0
 18  8  1  0
 18  4  1  0
 17 19  1  1
M  END
$$$$

     RDKit          3D

 18 19  0  0  0  0  0  0  0  0999 V2000
    7.8240   -0.3630   21.3240 N   0  0  0  0  0  0  0  0  0  0  0  0
    5.6430    1.0220   18.0780 C   0  0  0  0  0  0  0  0  0  0  0  0
    9.3810   -0.0700   23.1660 C   0  0  1  0  0  0  0  0  0  0  0  0
    8.9230    0.2880   21.7560 C   0  0  2  0  0  0  0  0  0  0  0  0
   10.9220   -0.2540   23.2050 C   0  0  2  0  0  0  0  0  0  0  0  0
   12.9670   -1.4490   22.2890 C   0  0  0  0  0  0  0  0  0  0  0  0
   13.4720   -1.7190   23.7010 C   0  0  0  0  0  0  0  0  0  0  0  0
   12.9860   -0.6440   24.6560 C   0  0  0  0  0  0  0  0  0  0  0  0
    5.8600    0.8370   20.4580 C   0  0  2  0  0  0  0  0  0  0  0  0
    7.4370   -0.1250   18.9070 C   0  0  0  0  0  0  0  0  0  0  0  0
    7.0410    0.0900   20.2270 C   0  0  1  0  0  0  0  0  0  0  0  0
    5.1540    1.2810   19.3450 C   0  0  0  0  0  0  0  0  0  0  0  0
    5.4060    1.2160   21.8440 C   0  0  0  0  0  0  0  0  0  0  0  0
    8.9010    1.0610   24.0770 C   0  0  0  0  0  0  0  0  0  0  0  0
    6.7680    0.3400   17.8460 N   0  0  0  0  0  0  0  0  0  0  0  0
    9.4630    1.1830   21.1240 O   0  0  0  0  0  0  0  0  0  0  0  0
   11.4410   -1.3390   22.2510 C   0  0  0  0  0  0  0  0  0  0  0  0
   11.4610   -0.5130   24.6230 C   0  0  0  0  0  0  0  0  0  0  0  0
  4  1  1  0
  4  3  1  0
  5  3  1  0
  7  6  1  0
  8  7  1  0
 11 10  1  0
 11  9  1  0
 11  1  1  1
 12  9  1  0
 12  2  1  0
  9 13  1  6
  3 14  1  1
 15 10  1  0
 15  2  1  0
  4 16  1  1
 17  6  1  0
  5 17  1  6
 18  8  1  0
 18  5  1  0
M  END
$$$$

     RDKit          3D

 21 24  0  0  0  0  0  0  0  0999 V2000
    9.0030    1.3280   21.1560 O   0  0  0  0  0  0  0  0  0  0  0  0
    8.5420    0.2440   21.5000 C   0  0  0  0  0  0  0  0  0  0  0  0
    8.8980   -0.4090   22.8400 C   0  0  1  0  0  0  0  0  0  0  0  0
   10.4110   -0.4660   22.9230 C   0  0  1  0  0  0  0  0  0  0  0  0
   11.1680   -1.1360   21.9660 C   0  0  0  0  0  0  0  0  0  0  0  0
   12.5510   -1.0680   21.9810 C   0  0  0  0  0  0  0  0  0  0  0  0
   13.1990   -0.3210   22.9370 C   0  0  0  0  0  0  0  0  0  0  0  0
   12.4730    0.3350   23.9230 C   0  0  0  0  0  0  0  0  0  0  0  0
   11.0880    0.2360   23.9250 C   0  0  0  0  0  0  0  0  0  0  0  0
   10.4470    0.8220   24.9910 O   0  0  0  0  0  0  0  0  0  0  0  0
    9.1110    0.3360   25.2460 C   0  0  0  0  0  0  0  0  0  0  0  0
    8.2440    0.3780   24.0080 C   0  0  0  0  0  0  0  0  0  0  0  0
    7.6320   -0.4360   20.7440 N   0  0  0  0  0  0  0  0  0  0  0  0
    7.1480   -0.0120   19.5170 C   0  0  1  0  0  0  0  0  0  0  0  0
    5.8870    0.5080   19.3570 N   0  0  0  0  0  0  0  0  0  0  0  0
    5.8200    0.8600   18.0420 C   0  0  0  0  0  0  0  0  0  0  0  0
    6.9370    0.6060   17.4330 N   0  0  0  0  0  0  0  0  0  0  0  0
    7.7940    0.0380   18.3670 N   0  0  0  0  0  0  0  0  0  0  0  0
    4.8710    0.7540   20.3940 C   0  0  1  0  0  0  0  0  0  0  0  0
    5.0650    1.9070   21.3130 C   0  0  0  0  0  0  0  0  0  0  0  0
    4.0160    1.9620   20.2510 C   0  0  0  0  0  0  0  0  0  0  0  0
  2  1  1  0
  3  2  1  6
  4  3  1  0
  4  5  1  6
  6  5  1  0
  7  6  1  0
  8  7  1  0
  9  4  1  0
  9  8  1  0
 10  9  1  0
 11 10  1  0
 12 11  1  0
 12  3  1  0
 13  2  1  0
 14 13  1  1
 15 14  1  0
 16 15  1  0
 17 16  1  0
 18 17  1  0
 18 14  1  0
 19 15  1  6
 20 19  1  0
 21 20  1  0
 21 19  1  0
M  END
$$$$

     RDKit          3D

 29 32  0  0  0  0  0  0  0  0999 V2000
    9.3850    1.3540   21.0880 O   0  0  0  0  0  0  0  0  0  0  0  0
    9.1130    0.2890   21.6300 C   0  0  0  0  0  0  0  0  0  0  0  0
    8.1310   -0.6740   20.9900 C   0  0  0  0  0  0  0  0  0  0  0  0
    7.1960    0.0000   20.0140 C   0  0  1  0  0  0  0  0  0  0  0  0
    7.4730    0.0150   18.6560 C   0  0  0  0  0  0  0  0  0  0  0  0
    6.6520    0.5290   17.7310 N   0  0  0  0  0  0  0  0  0  0  0  0
    5.4980    1.0580   18.1590 C   0  0  0  0  0  0  0  0  0  0  0  0
    5.1320    1.1040   19.4900 C   0  0  0  0  0  0  0  0  0  0  0  0
    5.9990    0.5690   20.4240 C   0  0  0  0  0  0  0  0  0  0  0  0
    9.6970   -0.0930   22.8020 N   0  0  0  0  0  0  0  0  0  0  0  0
   10.9060    0.6020   23.2280 C   0  0  0  0  0  0  0  0  0  0  0  0
   12.0560   -0.3370   23.4370 C   0  0  2  0  0  0  0  0  0  0  0  0
   12.9060   -0.9400   22.4600 C   0  0  0  0  0  0  0  0  0  0  0  0
   13.7090   -1.7920   23.1580 C   0  0  0  0  0  0  0  0  0  0  0  0
   12.3390   -0.7860   24.6700 N   0  0  0  0  0  0  0  0  0  0  0  0
   13.3460   -1.6810   24.4820 N   0  0  0  0  0  0  0  0  0  0  0  0
   13.8870   -2.4000   25.6280 C   0  0  0  0  0  0  0  0  0  0  0  0
    9.2010   -1.1530   23.6250 C   0  0  1  0  0  0  0  0  0  0  0  0
    9.5910   -2.4750   23.3970 C   0  0  0  0  0  0  0  0  0  0  0  0
    9.2250   -3.4710   24.2850 C   0  0  0  0  0  0  0  0  0  0  0  0
    8.4650   -3.1820   25.4190 C   0  0  2  0  0  0  0  0  0  0  0  0
    8.0500   -1.8640   25.6150 C   0  0  0  0  0  0  0  0  0  0  0  0
    8.4080   -0.8620   24.7340 C   0  0  0  0  0  0  0  0  0  0  0  0
    8.1620   -4.2320   26.4220 C   0  0  1  0  0  0  0  0  0  0  0  0
    9.1400   -5.1310   26.6500 N   0  0  0  0  0  0  0  0  0  0  0  0
    8.9380   -6.0350   27.6260 C   0  0  0  0  0  0  0  0  0  0  0  0
    7.7910   -6.0910   28.3970 C   0  0  0  0  0  0  0  0  0  0  0  0
    6.7930   -5.1750   28.1420 C   0  0  0  0  0  0  0  0  0  0  0  0
    6.9680   -4.2340   27.1400 C   0  0  0  0  0  0  0  0  0  0  0  0
  2  1  1  0
  3  2  1  0
  4  3  1  6
  5  4  1  0
  6  5  1  0
  7  6  1  0
  8  7  1  0
  9  8  1  0
  9  4  1  0
 10  2  1  0
 11 10  1  0
 12 11  1  6
 13 12  1  0
 14 13  1  0
 15 12  1  0
 16 15  1  0
 16 14  1  0
 17 16  1  0
 18 10  1  1
 19 18  1  0
 20 19  1  0
 21 20  1  1
 22 21  1  0
 23 22  1  0
 23 18  1  0
 24 21  1  0
 25 24  1  0
 26 25  1  0
 27 26  1  0
 28 27  1  0
 24 29  1  1
 29 28  1  0
M  END
$$$$

     RDKit          3D

 21 24  0  0  0  0  0  0  0  0999 V2000
    8.7650    1.2640   21.1510 O   0  0  0  0  0  0  0  0  0  0  0  0
    8.3620    0.1200   21.3280 C   0  0  0  0  0  0  0  0  0  0  0  0
    8.7980   -0.7300   22.5230 C   0  0  2  0  0  0  0  0  0  0  0  0
    8.3110   -0.0740   23.8110 C   0  0  0  0  0  0  0  0  0  0  0  0
    9.4580    0.6480   24.3380 O   0  0  0  0  0  0  0  0  0  0  0  0
   10.3000   -0.6700   22.7020 C   0  0  2  0  0  0  0  0  0  0  0  0
   10.6010    0.2500   23.6840 C   0  0  2  0  0  0  0  0  0  0  0  0
   11.9040    0.6150   23.9780 C   0  0  0  0  0  0  0  0  0  0  0  0
   12.9310    0.0090   23.2760 C   0  0  0  0  0  0  0  0  0  0  0  0
   11.3320   -1.2960   22.0190 C   0  0  0  0  0  0  0  0  0  0  0  0
   12.6320   -0.9570   22.3290 C   0  0  2  0  0  0  0  0  0  0  0  0
   13.9250   -1.8400   21.5860 Cl  0  0  0  0  0  0  0  0  0  0  0  0
    7.4800   -0.4850   20.4900 N   0  0  0  0  0  0  0  0  0  0  0  0
    6.9630    0.0480   19.3440 C   0  0  0  0  0  0  0  0  0  0  0  0
    5.7280    0.6500   19.3080 N   0  0  0  0  0  0  0  0  0  0  0  0
    5.6010    1.0690   18.0090 C   0  0  0  0  0  0  0  0  0  0  0  0
    6.6550    0.7620   17.3100 N   0  0  0  0  0  0  0  0  0  0  0  0
    7.5340    0.1040   18.1540 N   0  0  0  0  0  0  0  0  0  0  0  0
    4.7850    0.8520   20.4310 C   0  0  1  0  0  0  0  0  0  0  0  0
    5.1380    1.8470   21.4820 C   0  0  0  0  0  0  0  0  0  0  0  0
    4.0400    2.1400   20.5070 C   0  0  0  0  0  0  0  0  0  0  0  0
  2  1  1  0
  3  2  1  6
  4  3  1  0
  5  4  1  0
  6  3  1  0
  7  6  1  0
  7  5  1  0
  7  8  1  1
  9  8  1  0
  6 10  1  6
 11 10  1  0
 11  9  1  0
 11 12  1  1
 13  2  1  0
 14 13  1  0
 15 14  1  0
 16 15  1  0
 17 16  1  0
 18 17  1  0
 18 14  1  0
 19 15  1  6
 20 19  1  0
 21 20  1  0
 21 19  1  0
M  END
$$$$

     RDKit          3D

 24 26  0  0  0  0  0  0  0  0999 V2000
    9.2790    0.9870   21.0500 O   0  0  0  0  0  0  0  0  0  0  0  0
    8.9610   -0.1860   21.2200 C   0  0  0  0  0  0  0  0  0  0  0  0
    7.8280   -0.7340   20.7240 N   0  0  0  0  0  0  0  0  0  0  0  0
    6.9370   -0.0980   19.8230 C   0  0  0  0  0  0  0  0  0  0  0  0
    7.1800   -0.0890   18.4480 C   0  0  0  0  0  0  0  0  0  0  0  0
    6.3970    0.5340   17.5620 N   0  0  0  0  0  0  0  0  0  0  0  0
    5.3180    1.1660   18.0330 C   0  0  0  0  0  0  0  0  0  0  0  0
    4.9870    1.2170   19.3730 C   0  0  0  0  0  0  0  0  0  0  0  0
    5.8020    0.5850   20.3070 C   0  0  0  0  0  0  0  0  0  0  0  0
    5.4900    0.6790   21.7780 C   0  0  0  0  0  0  0  0  0  0  0  0
    9.8430   -1.1510   21.9990 C   0  0  0  0  0  0  0  0  0  0  0  0
   10.1450   -0.7130   23.4430 C   0  0  2  0  0  0  0  0  0  0  0  0
   11.0920   -1.6020   24.2120 C   0  0  0  0  0  0  0  0  0  0  0  0
   12.3660   -1.2380   24.5610 C   0  0  0  0  0  0  0  0  0  0  0  0
   13.1890   -2.4860   25.4030 S   0  0  0  0  0  0  0  0  0  0  0  0
   11.8510   -3.5310   25.3260 C   0  0  0  0  0  0  0  0  0  0  0  0
   10.8020   -2.9260   24.6520 C   0  0  0  0  0  0  0  0  0  0  0  0
    8.8970   -0.3550   24.1670 N   0  0  0  0  0  0  0  0  0  0  0  0
    7.9870   -1.4760   24.4580 C   0  0  0  0  0  0  0  0  0  0  0  0
    6.6090   -0.9770   24.9030 C   0  0  0  0  0  0  0  0  0  0  0  0
    6.7200   -0.0350   26.0890 C   0  0  2  0  0  0  0  0  0  0  0  0
    5.4440    0.5540   26.3740 O   0  0  0  0  0  0  0  0  0  0  0  0
    7.7510    1.0540   25.8500 C   0  0  0  0  0  0  0  0  0  0  0  0
    9.0840    0.4690   25.3720 C   0  0  0  0  0  0  0  0  0  0  0  0
  2  1  1  0
  3  2  1  0
  4  3  1  0
  5  4  1  0
  6  5  1  0
  7  6  1  0
  8  7  1  0
  9  8  1  0
  9  4  1  0
 10  9  1  0
 11  2  1  0
 12 11  1  6
 13 12  1  0
 14 13  1  0
 15 14  1  0
 16 15  1  0
 17 16  1  0
 17 13  1  0
 18 12  1  0
 19 18  1  0
 20 19  1  0
 21 20  1  0
 21 22  1  6
 23 21  1  0
 24 23  1  0
 24 18  1  0
M  END
$$$$

     RDKit          3D

 24 27  0  0  0  0  0  0  0  0999 V2000
    8.9440    1.3610   21.0430 O   0  0  0  0  0  0  0  0  0  0  0  0
    8.3910    0.2850   21.2570 C   0  0  2  0  0  0  0  0  0  0  0  0
    8.8120   -0.6420   22.3970 C   0  0  2  0  0  0  0  0  0  0  0  0
    8.2750   -0.0620   23.6980 C   0  0  0  0  0  0  0  0  0  0  0  0
    9.3490    0.7830   24.2020 O   0  0  0  0  0  0  0  0  0  0  0  0
   10.3020   -0.5320   22.6170 C   0  0  0  0  0  0  0  0  0  0  0  0
   10.5370    0.3230   23.6750 C   0  0  0  0  0  0  0  0  0  0  0  0
   11.8160    0.6430   24.0930 C   0  0  0  0  0  0  0  0  0  0  0  0
   12.8900    0.0880   23.4150 C   0  0  0  0  0  0  0  0  0  0  0  0
   11.3780   -1.1010   21.9500 C   0  0  0  0  0  0  0  0  0  0  0  0
   12.6570   -0.7750   22.3560 C   0  0  0  0  0  0  0  0  0  0  0  0
   14.0070   -1.4480   21.4930 Cl  0  0  0  0  0  0  0  0  0  0  0  0
    7.4860   -0.2440   20.3980 N   0  0  0  0  0  0  0  0  0  0  0  0
    6.7600    0.1960   19.3350 C   0  0  1  0  0  0  0  0  0  0  0  0
    6.0190    1.3850   19.3350 N   0  0  0  0  0  0  0  0  0  0  0  0
    5.7880    1.6080   17.9990 C   0  0  0  0  0  0  0  0  0  0  0  0
    6.2990    0.6670   17.2610 N   0  0  0  0  0  0  0  0  0  0  0  0
    6.9010   -0.2490   18.1010 N   0  0  0  0  0  0  0  0  0  0  0  0
    5.4380    2.1780   20.3900 C   0  0  2  0  0  0  0  0  0  0  0  0
    4.0570    2.3630   20.4270 C   0  0  0  0  0  0  0  0  0  0  0  0
    3.5080    3.2630   21.3310 C   0  0  0  0  0  0  0  0  0  0  0  0
    4.3210    3.9690   22.1970 C   0  0  0  0  0  0  0  0  0  0  0  0
    5.6900    3.7720   22.1730 C   0  0  0  0  0  0  0  0  0  0  0  0
    6.2560    2.8760   21.2780 C   0  0  0  0  0  0  0  0  0  0  0  0
  2  1  1  6
  3  2  1  0
  3  4  1  1
  5  4  1  0
  6  3  1  0
  7  6  1  0
  7  5  1  0
  8  7  1  0
  9  8  1  0
 10  6  1  0
 11 10  1  0
 11  9  1  0
 12 11  1  0
 13  2  1  0
 14 13  1  6
 15 14  1  0
 16 15  1  0
 17 16  1  0
 18 17  1  0
 18 14  1  0
 19 15  1  6
 20 19  1  0
 21 20  1  0
 22 21  1  0
 23 22  1  0
 24 19  1  0
 24 23  1  0
M  END
$$$$

     RDKit          3D

 22 25  0  0  0  0  0  0  0  0999 V2000
    9.2590    1.1520   21.0910 O   0  0  0  0  0  0  0  0  0  0  0  0
    8.7600    0.0990   21.4640 C   0  0  0  0  0  0  0  0  0  0  0  0
    7.7460   -0.5090   20.7660 N   0  0  0  0  0  0  0  0  0  0  0  0
    7.2290   -0.0480   19.5730 C   0  0  0  0  0  0  0  0  0  0  0  0
    5.9740    0.4880   19.4720 N   0  0  0  0  0  0  0  0  0  0  0  0
    4.9930    0.7020   20.5530 C   0  0  1  0  0  0  0  0  0  0  0  0
    5.1320    1.9170   21.4000 C   0  0  0  0  0  0  0  0  0  0  0  0
    4.0210    1.8180   20.4060 C   0  0  0  0  0  0  0  0  0  0  0  0
    5.8570    0.8390   18.1600 C   0  0  0  0  0  0  0  0  0  0  0  0
    6.9430    0.5620   17.5030 N   0  0  0  0  0  0  0  0  0  0  0  0
    7.8280   -0.0130   18.3970 N   0  0  0  0  0  0  0  0  0  0  0  0
    9.2120   -0.5780   22.7770 C   0  0  1  0  0  0  0  0  0  0  0  0
    8.9430   -2.0920   22.8910 C   0  0  0  0  0  0  0  0  0  0  0  0
   10.7290   -0.3950   22.8030 C   0  0  1  0  0  0  0  0  0  0  0  0
   11.5330   -1.0030   21.8490 C   0  0  0  0  0  0  0  0  0  0  0  0
   12.8940   -0.7490   21.8040 C   0  0  0  0  0  0  0  0  0  0  0  0
   13.4710    0.1130   22.7100 C   0  0  0  0  0  0  0  0  0  0  0  0
   12.6980    0.7200   23.6890 C   0  0  0  0  0  0  0  0  0  0  0  0
   11.3390    0.4460   23.7350 C   0  0  0  0  0  0  0  0  0  0  0  0
   10.6470    1.0130   24.7740 O   0  0  0  0  0  0  0  0  0  0  0  0
    9.2940    1.3610   24.4260 C   0  0  0  0  0  0  0  0  0  0  0  0
    8.5140    0.1520   23.9530 C   0  0  0  0  0  0  0  0  0  0  0  0
  2  1  1  0
  3  2  1  0
  4  3  1  0
  5  4  1  0
  6  5  1  6
  7  6  1  0
  8  7  1  0
  8  6  1  0
  9  5  1  0
 10  9  1  0
 11 10  1  0
 11  4  1  0
 12  2  1  0
 12 13  1  6
 14 12  1  0
 14 15  1  6
 16 15  1  0
 17 16  1  0
 18 17  1  0
 19 14  1  0
 19 18  1  0
 20 19  1  0
 21 20  1  0
 22 21  1  0
 22 12  1  0
M  END
$$$$

     RDKit          3D

 20 21  0  0  0  0  0  0  0  0999 V2000
    8.7430    0.4590   20.9400 O   0  0  0  0  0  0  0  0  0  0  0  0
    8.1100   -0.5760   21.1420 C   0  0  0  0  0  0  0  0  0  0  0  0
    8.5680   -1.6100   22.1460 C   0  0  0  0  0  0  0  0  0  0  0  0
    9.8420   -1.1170   22.7810 C   0  0  0  0  0  0  0  0  0  0  0  0
   11.0690   -1.4160   22.2020 C   0  0  0  0  0  0  0  0  0  0  0  0
   12.2230   -0.9200   22.7620 C   0  0  2  0  0  0  0  0  0  0  0  0
   13.7540   -1.3630   22.0650 Cl  0  0  0  0  0  0  0  0  0  0  0  0
   12.2030   -0.1220   23.8890 C   0  0  0  0  0  0  0  0  0  0  0  0
    9.7980   -0.3300   23.9260 C   0  0  0  0  0  0  0  0  0  0  0  0
   10.9780    0.1470   24.4790 C   0  0  1  0  0  0  0  0  0  0  0  0
   11.0810    0.7940   25.6840 O   0  0  0  0  0  0  0  0  0  0  0  0
    9.9010    0.9480   26.4790 C   0  0  0  0  0  0  0  0  0  0  0  0
    6.9460   -0.8760   20.5350 N   0  0  0  0  0  0  0  0  0  0  0  0
    6.3350   -0.0700   19.5590 C   0  0  0  0  0  0  0  0  0  0  0  0
    5.2400    0.7400   19.9050 C   0  0  1  0  0  0  0  0  0  0  0  0
    4.7190    0.8220   21.3180 C   0  0  0  0  0  0  0  0  0  0  0  0
    4.6980    1.5370   18.9020 C   0  0  0  0  0  0  0  0  0  0  0  0
    5.2610    1.5240   17.6430 C   0  0  0  0  0  0  0  0  0  0  0  0
    6.3190    0.7700   17.3120 N   0  0  0  0  0  0  0  0  0  0  0  0
    6.8360   -0.0190   18.2590 C   0  0  0  0  0  0  0  0  0  0  0  0
  2  1  1  0
  3  2  1  0
  4  3  1  0
  5  4  1  0
  6  5  1  0
  6  7  1  1
  8  6  1  0
  9  4  1  0
 10  9  1  0
 10  8  1  0
 10 11  1  1
 12 11  1  0
 13  2  1  0
 14 13  1  0
 15 14  1  0
 15 16  1  1
 17 15  1  0
 18 17  1  0
 19 18  1  0
 20 19  1  0
 20 14  1  0
M  END
$$$$

     RDKit          3D

 19 20  0  0  0  0  0  0  0  0999 V2000
   13.8180   -1.8970   21.2020 Cl  0  0  0  0  0  0  0  0  0  0  0  0
   12.6510   -1.1080   22.2250 C   0  0  0  0  0  0  0  0  0  0  0  0
   13.0840   -0.1900   23.1590 C   0  0  0  0  0  0  0  0  0  0  0  0
   12.1430    0.4150   23.9780 C   0  0  0  0  0  0  0  0  0  0  0  0
   10.7950    0.1240   23.8260 C   0  0  0  0  0  0  0  0  0  0  0  0
   11.3160   -1.4080   22.0630 C   0  0  0  0  0  0  0  0  0  0  0  0
   10.3660   -0.7690   22.8500 C   0  0  2  0  0  0  0  0  0  0  0  0
    8.8940   -1.0020   22.5910 C   0  0  0  0  0  0  0  0  0  0  0  0
    8.4150   -0.1930   21.4010 C   0  0  2  0  0  0  0  0  0  0  0  0
    8.9420    0.8750   21.0830 O   0  0  0  0  0  0  0  0  0  0  0  0
    7.3230   -0.6900   20.7880 N   0  0  0  0  0  0  0  0  0  0  0  0
    6.6440   -0.0010   19.7500 C   0  0  0  0  0  0  0  0  0  0  0  0
    5.5650    0.8510   20.0370 C   0  0  0  0  0  0  0  0  0  0  0  0
    5.1060    1.0850   21.4560 C   0  0  0  0  0  0  0  0  0  0  0  0
    7.0830   -0.1570   18.4430 C   0  0  0  0  0  0  0  0  0  0  0  0
    6.5120    0.4700   17.4150 N   0  0  0  0  0  0  0  0  0  0  0  0
    5.4790    1.2780   17.6790 C   0  0  0  0  0  0  0  0  0  0  0  0
    4.9700    1.4940   18.9790 C   0  0  0  0  0  0  0  0  0  0  0  0
    3.8920    2.3570   19.1220 N   0  0  0  0  0  0  0  0  0  0  0  0
  2  1  1  0
  3  2  1  0
  4  3  1  0
  5  4  1  0
  6  2  1  0
  7  5  1  0
  7  6  1  0
  7  8  1  6
  9  8  1  0
  9 10  1  1
 11  9  1  0
 12 11  1  0
 13 12  1  0
 14 13  1  0
 15 12  1  0
 16 15  1  0
 17 16  1  0
 18 17  1  0
 18 13  1  0
 19 18  1  0
M  END
$$$$

     RDKit          3D

 20 21  0  0  0  0  0  0  0  0999 V2000
   14.3260   -1.9850   20.5020 N   0  0  0  0  0  0  0  0  0  0  0  0
   13.6230   -1.5270   21.2760 C   0  0  0  0  0  0  0  0  0  0  0  0
   12.6970   -0.9580   22.2250 C   0  0  0  0  0  0  0  0  0  0  0  0
   13.1560   -0.1430   23.2570 C   0  0  0  0  0  0  0  0  0  0  0  0
   12.2520    0.3960   24.1570 C   0  0  0  0  0  0  0  0  0  0  0  0
   10.8950    0.1590   24.0040 C   0  0  0  0  0  0  0  0  0  0  0  0
   11.3330   -1.2090   22.0870 C   0  0  0  0  0  0  0  0  0  0  0  0
   10.4220   -0.6260   22.9610 C   0  0  0  0  0  0  0  0  0  0  0  0
    8.9410   -0.8190   22.7410 C   0  0  0  0  0  0  0  0  0  0  0  0
    8.4830   -0.0480   21.5220 C   0  0  0  0  0  0  0  0  0  0  0  0
    9.0970    0.9310   21.1090 O   0  0  0  0  0  0  0  0  0  0  0  0
    7.3340   -0.5030   20.9780 N   0  0  0  0  0  0  0  0  0  0  0  0
    6.6450    0.1180   19.9080 C   0  0  0  0  0  0  0  0  0  0  0  0
    5.5010    0.8960   20.1590 C   0  0  0  0  0  0  0  0  0  0  0  0
    5.0060    1.1350   21.5670 C   0  0  0  0  0  0  0  0  0  0  0  0
    7.1220   -0.0430   18.6130 C   0  0  0  0  0  0  0  0  0  0  0  0
    6.5260    0.4980   17.5490 N   0  0  0  0  0  0  0  0  0  0  0  0
    5.4260    1.2280   17.7620 C   0  0  0  0  0  0  0  0  0  0  0  0
    4.8670    1.4710   19.0560 C   0  0  0  0  0  0  0  0  0  0  0  0
    3.7430    2.3020   19.1630 N   0  0  0  0  0  0  0  0  0  0  0  0
  2  1  1  0
  3  2  1  0
  4  3  1  0
  5  4  1  0
  6  5  1  0
  7  3  1  0
  8  6  1  0
  8  7  1  0
  9  8  1  0
 10  9  1  0
 11 10  1  0
 12 10  1  0
 13 12  1  0
 14 13  1  0
 15 14  1  0
 16 13  1  0
 17 16  1  0
 18 17  1  0
 19 18  1  0
 19 14  1  0
 20 19  1  0
M  END
$$$$

     RDKit          3D

 15 16  0  0  0  0  0  0  0  0999 V2000
   13.5930   -0.5450   21.3480 F   0  0  0  0  0  0  0  0  0  0  0  0
   12.7190   -1.3280   22.1100 C   0  0  0  0  0  0  0  0  0  0  0  0
   11.5210   -0.4910   22.4710 C   0  0  2  0  0  0  0  0  0  0  0  0
   10.5860   -0.8580   23.5750 C   0  0  0  0  0  0  0  0  0  0  0  0
   10.1710   -1.0940   22.1440 C   0  0  1  0  0  0  0  0  0  0  0  0
    9.2420   -0.1100   21.4590 C   0  0  1  0  0  0  0  0  0  0  0  0
    9.6020    1.0320   21.1920 O   0  0  0  0  0  0  0  0  0  0  0  0
    8.0390   -0.6230   21.1150 N   0  0  0  0  0  0  0  0  0  0  0  0
    7.1310   -0.0600   20.1870 C   0  0  0  0  0  0  0  0  0  0  0  0
    5.9840    0.6140   20.6460 C   0  0  0  0  0  0  0  0  0  0  0  0
    5.6710    0.7500   22.1140 C   0  0  0  0  0  0  0  0  0  0  0  0
    7.3490   -0.1440   18.8110 C   0  0  0  0  0  0  0  0  0  0  0  0
    6.5250    0.3820   17.9000 N   0  0  0  0  0  0  0  0  0  0  0  0
    5.4400    1.0200   18.3490 C   0  0  0  0  0  0  0  0  0  0  0  0
    5.1350    1.1570   19.6890 C   0  0  0  0  0  0  0  0  0  0  0  0
  2  1  1  0
  3  2  1  1
  4  3  1  0
  5  4  1  1
  5  3  1  0
  6  5  1  0
  6  7  1  6
  8  6  1  0
  9  8  1  0
 10  9  1  0
 11 10  1  0
 12  9  1  0
 13 12  1  0
 14 13  1  0
 15 14  1  0
 15 10  1  0
M  END
$$$$

     RDKit          3D

 18 19  0  0  0  0  0  0  0  0999 V2000
    8.6730    0.8720   21.3890 O   0  0  0  0  0  0  0  0  0  0  0  0
    8.3200   -0.2870   21.1830 C   0  0  2  0  0  0  0  0  0  0  0  0
    8.9520   -1.4570   21.9120 C   0  0  0  0  0  0  0  0  0  0  0  0
    9.9480   -0.9610   22.9350 C   0  0  1  0  0  0  0  0  0  0  0  0
   11.2650   -0.7200   22.5700 C   0  0  0  0  0  0  0  0  0  0  0  0
   12.1410   -0.0540   23.4130 C   0  0  0  0  0  0  0  0  0  0  0  0
   13.5330    0.2980   22.9570 C   0  0  0  0  0  0  0  0  0  0  0  0
   11.6820    0.3270   24.6680 C   0  0  0  0  0  0  0  0  0  0  0  0
    9.5290   -0.5830   24.2050 C   0  0  0  0  0  0  0  0  0  0  0  0
   10.3840    0.0650   25.0870 C   0  0  0  0  0  0  0  0  0  0  0  0
    9.9050    0.4980   26.4510 C   0  0  0  0  0  0  0  0  0  0  0  0
    7.4870   -0.6350   20.1570 N   0  0  0  0  0  0  0  0  0  0  0  0
    6.6320    0.0130   19.2990 C   0  0  1  0  0  0  0  0  0  0  0  0
    5.8500    1.1300   19.5910 N   0  0  0  0  0  0  0  0  0  0  0  0
    5.5370    1.6940   20.9020 C   0  0  0  0  0  0  0  0  0  0  0  0
    5.3480    1.5600   18.4270 C   0  0  0  0  0  0  0  0  0  0  0  0
    5.7480    0.7980   17.4520 N   0  0  0  0  0  0  0  0  0  0  0  0
    6.5550   -0.1920   17.9950 N   0  0  0  0  0  0  0  0  0  0  0  0
  2  1  1  6
  3  2  1  0
  4  3  1  6
  5  4  1  0
  6  5  1  0
  7  6  1  0
  8  6  1  0
  9  4  1  0
 10  9  1  0
 10  8  1  0
 11 10  1  0
 12  2  1  0
 13 12  1  6
 14 13  1  0
 15 14  1  0
 16 14  1  0
 17 16  1  0
 18 17  1  0
 18 13  1  0
M  END
$$$$

     RDKit          3D

 21 23  0  0  0  0  0  0  0  0999 V2000
    9.3470    0.7250   21.1080 O   0  0  0  0  0  0  0  0  0  0  0  0
    8.8720   -0.3490   21.4730 C   0  0  0  0  0  0  0  0  0  0  0  0
    7.4320   -0.7220   21.1760 C   0  0  0  0  0  0  0  0  0  0  0  0
    6.7770    0.0020   20.0180 C   0  0  1  0  0  0  0  0  0  0  0  0
    7.2500   -0.1450   18.7260 C   0  0  0  0  0  0  0  0  0  0  0  0
    6.6850    0.4060   17.6460 N   0  0  0  0  0  0  0  0  0  0  0  0
    5.5830    1.1360   17.8420 C   0  0  0  0  0  0  0  0  0  0  0  0
    5.0360    1.3600   19.0890 C   0  0  0  0  0  0  0  0  0  0  0  0
    5.6370    0.7990   20.2100 C   0  0  0  0  0  0  0  0  0  0  0  0
    5.0840    1.0960   21.5800 C   0  0  0  0  0  0  0  0  0  0  0  0
    9.5560   -1.2810   22.1870 N   0  0  0  0  0  0  0  0  0  0  0  0
   10.9070   -1.3130   22.6390 C   0  0  0  0  0  0  0  0  0  0  0  0
   11.2160   -1.9730   23.8530 C   0  0  0  0  0  0  0  0  0  0  0  0
   10.1200   -2.5730   24.6980 C   0  0  0  0  0  0  0  0  0  0  0  0
   10.5710   -2.9590   26.0390 N   0  0  0  0  0  0  0  0  0  0  0  0
   11.8610   -3.6780   25.9940 C   0  0  0  0  0  0  0  0  0  0  0  0
   12.9650   -2.7660   25.5160 C   0  0  0  0  0  0  0  0  0  0  0  0
   12.5620   -2.0570   24.2470 C   0  0  0  0  0  0  0  0  0  0  0  0
   13.5510   -1.4790   23.4540 C   0  0  0  0  0  0  0  0  0  0  0  0
   13.2280   -0.8290   22.2770 C   0  0  0  0  0  0  0  0  0  0  0  0
   11.9130   -0.7470   21.8620 C   0  0  0  0  0  0  0  0  0  0  0  0
  2  1  1  0
  3  2  1  0
  4  3  1  6
  5  4  1  0
  6  5  1  0
  7  6  1  0
  8  7  1  0
  9  8  1  0
  9  4  1  0
 10  9  1  0
 11  2  1  0
 12 11  1  0
 13 12  1  0
 14 13  1  0
 15 14  1  0
 16 15  1  0
 17 16  1  0
 18 17  1  0
 18 13  1  0
 19 18  1  0
 20 19  1  0
 21 20  1  0
 21 12  1  0
M  END
$$$$

     RDKit          3D

 18 19  0  0  0  0  0  0  0  0999 V2000
   13.8120   -1.9310   21.3350 Br  0  0  0  0  0  0  0  0  0  0  0  0
   12.5180   -1.0020   22.3660 C   0  0  0  0  0  0  0  0  0  0  0  0
   12.9370   -0.0550   23.2800 C   0  0  0  0  0  0  0  0  0  0  0  0
   11.9800    0.5630   24.0700 C   0  0  0  0  0  0  0  0  0  0  0  0
   10.6380    0.2610   23.9030 C   0  0  0  0  0  0  0  0  0  0  0  0
   11.1900   -1.3250   22.1990 C   0  0  0  0  0  0  0  0  0  0  0  0
   10.2290   -0.6650   22.9540 C   0  0  2  0  0  0  0  0  0  0  0  0
    8.7660   -0.8880   22.6620 C   0  0  0  0  0  0  0  0  0  0  0  0
    8.3280   -0.1200   21.4320 C   0  0  2  0  0  0  0  0  0  0  0  0
    8.9460    0.8600   21.0220 O   0  0  0  0  0  0  0  0  0  0  0  0
    7.1830   -0.5620   20.8820 N   0  0  0  0  0  0  0  0  0  0  0  0
    6.5380    0.0530   19.7870 C   0  0  1  0  0  0  0  0  0  0  0  0
    5.3960    0.8380   20.0030 C   0  0  1  0  0  0  0  0  0  0  0  0
    4.8220    1.0560   21.3810 C   0  0  0  0  0  0  0  0  0  0  0  0
    7.0490   -0.0500   18.4960 C   0  0  0  0  0  0  0  0  0  0  0  0
    6.5110    0.5700   17.4420 N   0  0  0  0  0  0  0  0  0  0  0  0
    5.4230    1.3170   17.6590 C   0  0  0  0  0  0  0  0  0  0  0  0
    4.8380    1.4700   18.8990 C   0  0  0  0  0  0  0  0  0  0  0  0
  2  1  1  0
  3  2  1  0
  4  3  1  0
  5  4  1  0
  6  2  1  0
  7  5  1  0
  7  6  1  0
  7  8  1  6
  9  8  1  0
  9 10  1  1
 11  9  1  0
 12 11  1  1
 13 12  1  0
 13 14  1  1
 15 12  1  0
 16 15  1  0
 17 16  1  0
 18 17  1  0
 18 13  1  0
M  END
$$$$

     RDKit          3D

 22 23  0  0  0  0  0  0  0  0999 V2000
   13.9810   -1.6260   21.0670 Cl  0  0  0  0  0  0  0  0  0  0  0  0
   12.9250   -0.6790   22.0800 C   0  0  0  0  0  0  0  0  0  0  0  0
   13.4720    0.2480   22.9420 C   0  0  0  0  0  0  0  0  0  0  0  0
   12.6280    0.9420   23.7940 C   0  0  0  0  0  0  0  0  0  0  0  0
   11.2610    0.7140   23.7620 C   0  0  0  0  0  0  0  0  0  0  0  0
   11.5630   -0.9060   22.0240 C   0  0  0  0  0  0  0  0  0  0  0  0
   10.7140   -0.1970   22.8680 C   0  0  0  0  0  0  0  0  0  0  0  0
    9.2070   -0.4150   22.7980 C   0  0  2  0  0  0  0  0  0  0  0  0
    8.8350   -1.8050   23.3540 C   0  0  0  0  0  0  0  0  0  0  0  0
    8.6770    0.1370   21.4640 C   0  0  2  0  0  0  0  0  0  0  0  0
    9.1310    1.1650   20.9750 O   0  0  0  0  0  0  0  0  0  0  0  0
    7.6230   -0.5290   20.9150 N   0  0  0  0  0  0  0  0  0  0  0  0
    6.8590   -0.0600   19.8240 C   0  0  1  0  0  0  0  0  0  0  0  0
    5.6520    0.6140   20.0610 C   0  0  0  0  0  0  0  0  0  0  0  0
    5.1840    0.7270   21.3910 N   0  0  0  0  0  0  0  0  0  0  0  0
    3.9860    1.1710   21.8470 C   0  0  0  0  0  0  0  0  0  0  0  0
    3.8280    1.1370   23.3380 C   0  0  0  0  0  0  0  0  0  0  0  0
    3.0840    1.5600   21.1050 O   0  0  0  0  0  0  0  0  0  0  0  0
    4.9700    1.1760   18.9850 C   0  0  0  0  0  0  0  0  0  0  0  0
    5.5260    1.0430   17.7290 C   0  0  0  0  0  0  0  0  0  0  0  0
    6.6760    0.4030   17.4790 N   0  0  0  0  0  0  0  0  0  0  0  0
    7.3180   -0.1440   18.5140 C   0  0  0  0  0  0  0  0  0  0  0  0
  2  1  1  0
  3  2  1  0
  4  3  1  0
  5  4  1  0
  6  2  1  0
  7  6  1  0
  7  5  1  0
  8  7  1  0
  8  9  1  6
 10  8  1  0
 10 11  1  1
 12 10  1  0
 13 12  1  1
 14 13  1  0
 15 14  1  0
 16 15  1  0
 17 16  1  0
 18 16  1  0
 19 14  1  0
 20 19  1  0
 21 20  1  0
 22 21  1  0
 22 13  1  0
M  END
$$$$

     RDKit          3D

 20 21  0  0  0  0  0  0  0  0999 V2000
    9.3290    0.5120   20.9790 O   0  0  0  0  0  0  0  0  0  0  0  0
    8.5910   -0.3350   21.4770 C   0  0  0  0  0  0  0  0  0  0  0  0
    7.3570   -0.6430   21.0110 N   0  0  0  0  0  0  0  0  0  0  0  0
    6.6720   -0.0270   19.9320 C   0  0  0  0  0  0  0  0  0  0  0  0
    5.5050    0.7250   20.1780 C   0  0  0  0  0  0  0  0  0  0  0  0
    4.9170    0.8660   21.5570 C   0  0  0  0  0  0  0  0  0  0  0  0
    4.9050    1.3460   19.0900 C   0  0  0  0  0  0  0  0  0  0  0  0
    5.4640    1.2110   17.8360 C   0  0  0  0  0  0  0  0  0  0  0  0
    6.5650    0.4960   17.5880 N   0  0  0  0  0  0  0  0  0  0  0  0
    7.1480   -0.1120   18.6240 C   0  0  0  0  0  0  0  0  0  0  0  0
    9.0080   -1.1110   22.7160 C   0  0  0  0  0  0  0  0  0  0  0  0
   10.4080   -0.8960   23.0760 N   0  0  0  0  0  0  0  0  0  0  0  0
   11.2110   -2.0690   22.7070 C   0  0  0  0  0  0  0  0  0  0  0  0
   12.6810   -1.8540   23.0470 C   0  0  0  0  0  0  0  0  0  0  0  0
   10.5520   -0.6190   24.5180 C   0  0  0  0  0  0  0  0  0  0  0  0
   12.0200   -0.3960   24.8830 C   0  0  0  0  0  0  0  0  0  0  0  0
   12.8210   -1.5590   24.4740 N   0  0  0  0  0  0  0  0  0  0  0  0
   13.5400   -2.3480   25.3060 C   0  0  0  0  0  0  0  0  0  0  0  0
   14.6330   -2.0020   25.7060 O   0  0  0  0  0  0  0  0  0  0  0  0
   12.9550   -3.6610   25.7120 C   0  0  0  0  0  0  0  0  0  0  0  0
  2  1  1  0
  3  2  1  0
  4  3  1  0
  5  4  1  0
  6  5  1  0
  7  5  1  0
  8  7  1  0
  9  8  1  0
 10  9  1  0
 10  4  1  0
 11  2  1  0
 12 11  1  0
 13 12  1  0
 14 13  1  0
 15 12  1  0
 16 15  1  0
 17 16  1  0
 17 14  1  0
 18 17  1  0
 19 18  1  0
 20 18  1  0
M  END
$$$$

     RDKit          3D

 16 17  0  0  0  0  0  0  0  0999 V2000
   13.8490   -1.8640   21.3590 Cl  0  0  0  0  0  0  0  0  0  0  0  0
   12.6600   -0.9760   22.2770 C   0  0  0  0  0  0  0  0  0  0  0  0
   13.0640    0.0810   23.0640 C   0  0  0  0  0  0  0  0  0  0  0  0
   12.1070    0.7700   23.7930 C   0  0  0  0  0  0  0  0  0  0  0  0
   10.7680    0.4180   23.6990 C   0  0  0  0  0  0  0  0  0  0  0  0
   11.3330   -1.3480   22.1870 C   0  0  0  0  0  0  0  0  0  0  0  0
   10.3650   -0.6210   22.8730 C   0  0  2  0  0  0  0  0  0  0  0  0
    8.9050   -0.8460   22.5620 C   0  0  0  0  0  0  0  0  0  0  0  0
    8.5110   -0.3360   21.1700 C   0  0  2  0  0  0  0  0  0  0  0  0
    8.8840    1.0450   21.0470 O   0  0  0  0  0  0  0  0  0  0  0  0
    7.0140   -0.5120   20.9420 C   0  0  0  0  0  0  0  0  0  0  0  0
    6.5880   -0.0260   19.6330 N   0  0  0  0  0  0  0  0  0  0  0  0
    5.5370    0.8230   19.5170 N   0  0  0  0  0  0  0  0  0  0  0  0
    5.5120    1.0520   18.2240 C   0  0  0  0  0  0  0  0  0  0  0  0
    6.4630    0.4200   17.5050 N   0  0  0  0  0  0  0  0  0  0  0  0
    7.1090   -0.2520   18.4310 C   0  0  0  0  0  0  0  0  0  0  0  0
  2  1  1  0
  3  2  1  0
  4  3  1  0
  5  4  1  0
  6  2  1  0
  7  5  1  0
  7  6  1  0
  7  8  1  6
  9  8  1  0
  9 10  1  1
 11  9  1  0
 12 11  1  0
 13 12  1  0
 14 13  1  0
 15 14  1  0
 16 15  1  0
 16 12  1  0
M  END
$$$$

     RDKit          3D

 19 20  0  0  0  0  0  0  0  0999 V2000
   11.6150   -4.2450   26.0080 F   0  0  0  0  0  0  0  0  0  0  0  0
   12.1290   -3.2030   25.2830 C   0  0  0  0  0  0  0  0  0  0  0  0
   13.4670   -2.9380   25.3870 C   0  0  0  0  0  0  0  0  0  0  0  0
   13.9790   -1.9090   24.6120 C   0  0  0  0  0  0  0  0  0  0  0  0
   13.1500   -1.1670   23.7800 C   0  0  0  0  0  0  0  0  0  0  0  0
   11.2730   -2.4830   24.4670 C   0  0  0  0  0  0  0  0  0  0  0  0
   11.7870   -1.4310   23.7100 C   0  0  1  0  0  0  0  0  0  0  0  0
   10.8730   -0.5280   22.9170 C   0  0  0  0  0  0  0  0  0  0  0  0
    9.6430   -1.1810   22.2420 C   0  0  0  0  0  0  0  0  0  0  0  0
    8.8800   -0.2030   21.3710 C   0  0  0  0  0  0  0  0  0  0  0  0
    9.3520    0.8910   21.0580 O   0  0  0  0  0  0  0  0  0  0  0  0
    7.6640   -0.6390   20.9530 N   0  0  0  0  0  0  0  0  0  0  0  0
    6.8830   -0.0170   19.9340 C   0  0  0  0  0  0  0  0  0  0  0  0
    5.6920    0.6770   20.2580 C   0  0  0  0  0  0  0  0  0  0  0  0
    5.2060    0.8120   21.6780 C   0  0  0  0  0  0  0  0  0  0  0  0
    7.2890   -0.0380   18.5970 C   0  0  0  0  0  0  0  0  0  0  0  0
    6.6190    0.5580   17.6050 N   0  0  0  0  0  0  0  0  0  0  0  0
    5.4860    1.1940   17.9290 C   0  0  0  0  0  0  0  0  0  0  0  0
    4.9980    1.2810   19.2180 C   0  0  0  0  0  0  0  0  0  0  0  0
  2  1  1  0
  3  2  1  0
  4  3  1  0
  5  4  1  0
  6  2  1  0
  7  6  1  0
  7  5  1  0
  7  8  1  1
  9  8  1  0
 10  9  1  0
 11 10  1  0
 12 10  1  0
 13 12  1  0
 14 13  1  0
 15 14  1  0
 16 13  1  0
 17 16  1  0
 18 17  1  0
 19 18  1  0
 19 14  1  0
M  END
$$$$

     RDKit          3D

 17 18  0  0  0  0  0  0  0  0999 V2000
    9.3660    0.5690   20.9040 O   0  0  0  0  0  0  0  0  0  0  0  0
    8.6310   -0.1830   21.5390 C   0  0  2  0  0  0  0  0  0  0  0  0
    7.3500   -0.4510   21.2070 N   0  0  0  0  0  0  0  0  0  0  0  0
    6.6790    0.0880   20.0790 C   0  0  0  0  0  0  0  0  0  0  0  0
    7.2310   -0.0190   18.7980 C   0  0  0  0  0  0  0  0  0  0  0  0
    6.6570    0.4970   17.7060 N   0  0  0  0  0  0  0  0  0  0  0  0
    5.4880    1.1360   17.8730 C   0  0  0  0  0  0  0  0  0  0  0  0
    4.8650    1.2910   19.0990 C   0  0  0  0  0  0  0  0  0  0  0  0
    5.4600    0.7730   20.2410 C   0  0  0  0  0  0  0  0  0  0  0  0
    4.8280    0.9800   21.5970 C   0  0  0  0  0  0  0  0  0  0  0  0
    9.1000   -0.8230   22.8320 C   0  0  0  0  0  0  0  0  0  0  0  0
   10.5270   -0.5860   23.0350 N   0  0  0  0  0  0  0  0  0  0  0  0
   10.8990   -0.7280   24.4550 C   0  0  0  0  0  0  0  0  0  0  0  0
   12.3710   -0.4300   24.6760 C   0  0  0  0  0  0  0  0  0  0  0  0
   13.2450   -1.3030   23.7990 C   0  0  0  0  0  0  0  0  0  0  0  0
   12.7980   -1.2330   22.3440 C   0  0  0  0  0  0  0  0  0  0  0  0
   11.3200   -1.5200   22.2180 C   0  0  0  0  0  0  0  0  0  0  0  0
  2  1  1  1
  3  2  1  0
  4  3  1  0
  5  4  1  0
  6  5  1  0
  7  6  1  0
  8  7  1  0
  9  8  1  0
  9  4  1  0
 10  9  1  0
 11  2  1  0
 12 11  1  0
 13 12  1  0
 14 13  1  0
 15 14  1  0
 16 15  1  0
 17 12  1  0
 17 16  1  0
M  END
$$$$

     RDKit          3D

 17 18  0  0  0  0  0  0  0  0999 V2000
   13.6460   -1.8290   21.4050 Cl  0  0  0  0  0  0  0  0  0  0  0  0
   12.4480   -0.9540   22.3170 C   0  0  0  0  0  0  0  0  0  0  0  0
   12.8570    0.0170   23.2030 C   0  0  0  0  0  0  0  0  0  0  0  0
   11.8990    0.6750   23.9540 C   0  0  0  0  0  0  0  0  0  0  0  0
   10.5550    0.3750   23.7910 C   0  0  0  0  0  0  0  0  0  0  0  0
   11.1110   -1.2650   22.1420 C   0  0  0  0  0  0  0  0  0  0  0  0
   10.1440   -0.5830   22.8760 C   0  0  2  0  0  0  0  0  0  0  0  0
    8.6750   -0.7990   22.5920 C   0  0  0  0  0  0  0  0  0  0  0  0
    8.2720   -0.0190   21.3560 C   0  0  0  0  0  0  0  0  0  0  0  0
    8.8590    1.0050   21.0120 O   0  0  0  0  0  0  0  0  0  0  0  0
    7.1960   -0.5220   20.6780 N   0  0  0  0  0  0  0  0  0  0  0  0
    6.7290    0.0220   19.4810 C   0  0  0  0  0  0  0  0  0  0  0  0
    5.7360    0.9760   19.3700 N   0  0  0  0  0  0  0  0  0  0  0  0
    5.0560    1.6960   20.4450 C   0  0  0  0  0  0  0  0  0  0  0  0
    7.1510   -0.2640   18.2240 C   0  0  0  0  0  0  0  0  0  0  0  0
    6.4340    0.4810   17.3150 N   0  0  0  0  0  0  0  0  0  0  0  0
    5.5990    1.1960   18.0410 C   0  0  0  0  0  0  0  0  0  0  0  0
  2  1  1  0
  3  2  1  0
  4  3  1  0
  5  4  1  0
  6  2  1  0
  7  5  1  0
  7  6  1  0
  7  8  1  6
  9  8  1  0
 10  9  1  0
 11  9  1  0
 12 11  1  0
 13 12  1  0
 14 13  1  0
 15 12  1  0
 16 15  1  0
 17 16  1  0
 17 13  1  0
M  END
$$$$

     RDKit          3D

 20 22  0  0  0  0  0  0  0  0999 V2000
   14.0070   -2.7000   23.7410 Cl  0  0  0  0  0  0  0  0  0  0  0  0
   12.9370   -1.3720   23.3940 C   0  0  0  0  0  0  0  0  0  0  0  0
   13.4000   -0.0830   23.5470 C   0  0  0  0  0  0  0  0  0  0  0  0
   12.5190    0.9700   23.3810 C   0  0  0  0  0  0  0  0  0  0  0  0
   11.1980    0.7330   23.0450 C   0  0  0  0  0  0  0  0  0  0  0  0
   11.6380   -1.6420   23.0040 C   0  0  0  0  0  0  0  0  0  0  0  0
   10.7610   -0.5740   22.8240 C   0  0  2  0  0  0  0  0  0  0  0  0
    9.4690   -0.7820   22.2610 N   0  0  0  0  0  0  0  0  0  0  0  0
    8.6350   -1.9450   22.5970 C   0  0  0  0  0  0  0  0  0  0  0  0
    7.3710   -1.7290   21.7910 C   0  0  0  0  0  0  0  0  0  0  0  0
    8.8630    0.0620   21.3550 C   0  0  0  0  0  0  0  0  0  0  0  0
    9.3130    1.1070   20.9330 O   0  0  0  0  0  0  0  0  0  0  0  0
    7.6410   -0.4920   21.0410 N   0  0  0  0  0  0  0  0  0  0  0  0
    6.7630    0.0180   20.0270 C   0  0  1  0  0  0  0  0  0  0  0  0
    5.5950    0.7220   20.3210 C   0  0  0  0  0  0  0  0  0  0  0  0
    5.0860    0.8890   21.7310 C   0  0  0  0  0  0  0  0  0  0  0  0
    7.1780   -0.0780   18.7010 C   0  0  0  0  0  0  0  0  0  0  0  0
    6.5250    0.4820   17.6790 N   0  0  0  0  0  0  0  0  0  0  0  0
    5.4050    1.1550   17.9680 C   0  0  0  0  0  0  0  0  0  0  0  0
    4.9120    1.2960   19.2520 C   0  0  0  0  0  0  0  0  0  0  0  0
  2  1  1  0
  3  2  1  0
  4  3  1  0
  5  4  1  0
  6  2  1  0
  7  6  1  0
  7  5  1  0
  7  8  1  6
  9  8  1  0
 10  9  1  0
 11  8  1  0
 12 11  1  0
 13 11  1  0
 13 10  1  0
 14 13  1  1
 15 14  1  0
 16 15  1  0
 17 14  1  0
 18 17  1  0
 19 18  1  0
 20 19  1  0
 20 15  1  0
M  END
$$$$

     RDKit          3D

 18 19  0  0  0  0  0  0  0  0999 V2000
   13.8930   -1.8570   21.4560 Cl  0  0  0  0  0  0  0  0  0  0  0  0
   12.6940   -1.0220   22.4070 C   0  0  2  0  0  0  0  0  0  0  0  0
   13.1010   -0.1360   23.3860 C   0  0  0  0  0  0  0  0  0  0  0  0
   12.1400    0.4190   24.2190 C   0  0  0  0  0  0  0  0  0  0  0  0
   10.7970    0.1410   24.0160 C   0  0  0  0  0  0  0  0  0  0  0  0
   11.3590   -1.3160   22.2020 C   0  0  0  0  0  0  0  0  0  0  0  0
   10.3910   -0.7030   22.9900 C   0  0  2  0  0  0  0  0  0  0  0  0
    8.9270   -0.8940   22.6730 C   0  0  0  0  0  0  0  0  0  0  0  0
    8.4730   -0.0550   21.4940 C   0  0  2  0  0  0  0  0  0  0  0  0
    9.0710    0.9640   21.1330 O   0  0  0  0  0  0  0  0  0  0  0  0
    7.3310   -0.4850   20.9260 N   0  0  0  0  0  0  0  0  0  0  0  0
    6.6520    0.1310   19.8750 C   0  0  1  0  0  0  0  0  0  0  0  0
    5.4440    0.8310   20.1180 C   0  0  1  0  0  0  0  0  0  0  0  0
    4.8450    0.9710   21.4950 C   0  0  0  0  0  0  0  0  0  0  0  0
    7.2340    0.1300   18.6760 N   0  0  0  0  0  0  0  0  0  0  0  0
    6.6830    0.7920   17.6400 N   0  0  0  0  0  0  0  0  0  0  0  0
    5.5430    1.4570   17.8130 C   0  0  0  0  0  0  0  0  0  0  0  0
    4.8940    1.4940   19.0320 C   0  0  0  0  0  0  0  0  0  0  0  0
  2  1  1  1
  3  2  1  0
  4  3  1  0
  5  4  1  0
  6  2  1  0
  7  5  1  0
  7  6  1  0
  7  8  1  6
  9  8  1  0
  9 10  1  1
 11  9  1  0
 12 11  1  1
 13 12  1  0
 13 14  1  1
 15 12  1  0
 16 15  1  0
 17 16  1  0
 18 13  1  0
 18 17  1  0
M  END
$$$$

     RDKit          3D

 22 23  0  0  0  0  0  0  0  0999 V2000
   13.8710   -1.8810   21.4000 Cl  0  0  0  0  0  0  0  0  0  0  0  0
   12.7360   -0.8850   22.2700 C   0  0  1  0  0  0  0  0  0  0  0  0
   13.1800    0.2680   22.8850 C   0  0  0  0  0  0  0  0  0  0  0  0
   12.2500    1.0970   23.4970 C   0  0  0  0  0  0  0  0  0  0  0  0
   10.9050    0.7580   23.4950 C   0  0  0  0  0  0  0  0  0  0  0  0
   11.4040   -1.2420   22.2710 C   0  0  0  0  0  0  0  0  0  0  0  0
   10.4680   -0.4070   22.8770 C   0  0  2  0  0  0  0  0  0  0  0  0
    8.9790   -0.7210   22.7600 C   0  0  1  0  0  0  0  0  0  0  0  0
    8.2450   -0.2850   24.0220 C   0  0  0  0  0  0  0  0  0  0  0  0
    7.5510    0.6920   24.1070 O   0  0  0  0  0  0  0  0  0  0  0  0
    8.5160   -1.1120   25.0340 O   0  0  0  0  0  0  0  0  0  0  0  0
    8.0980   -0.6880   26.3530 C   0  0  0  0  0  0  0  0  0  0  0  0
    8.4070    0.0330   21.5340 C   0  0  0  0  0  0  0  0  0  0  0  0
    8.9190    1.0620   21.1090 O   0  0  0  0  0  0  0  0  0  0  0  0
    7.3130   -0.5300   20.9880 N   0  0  0  0  0  0  0  0  0  0  0  0
    6.6130    0.0670   19.9070 C   0  0  1  0  0  0  0  0  0  0  0  0
    5.4610    0.8320   20.1580 C   0  0  0  0  0  0  0  0  0  0  0  0
    4.9100    1.0100   21.5510 C   0  0  0  0  0  0  0  0  0  0  0  0
    4.8640    1.4660   19.0740 C   0  0  0  0  0  0  0  0  0  0  0  0
    5.4100    1.3220   17.8120 C   0  0  0  0  0  0  0  0  0  0  0  0
    6.5030    0.5910   17.5590 N   0  0  0  0  0  0  0  0  0  0  0  0
    7.0850   -0.0210   18.5960 C   0  0  0  0  0  0  0  0  0  0  0  0
  2  1  1  6
  3  2  1  0
  4  3  1  0
  5  4  1  0
  6  2  1  0
  7  6  1  6
  7  5  1  0
  8  7  1  0
  8  9  1  1
 10  9  1  0
 11  9  1  0
 12 11  1  0
 13  8  1  0
 14 13  1  0
 15 13  1  0
 16 15  1  1
 17 16  1  0
 18 17  1  0
 19 17  1  0
 20 19  1  0
 21 20  1  0
 22 21  1  0
 22 16  1  0
M  END
$$$$

     RDKit          3D

 23 25  0  0  0  0  0  0  0  0999 V2000
    8.7210    1.4490   21.2770 O   0  0  0  0  0  0  0  0  0  0  0  0
    8.3930    0.2670   21.3360 C   0  0  2  0  0  0  0  0  0  0  0  0
    8.8970   -0.6460   22.4360 C   0  0  0  0  0  0  0  0  0  0  0  0
   10.3750   -0.4580   22.6920 C   0  0  2  0  0  0  0  0  0  0  0  0
   10.8280    0.5080   23.5820 C   0  0  0  0  0  0  0  0  0  0  0  0
   12.1820    0.7730   23.7160 C   0  0  0  0  0  0  0  0  0  0  0  0
   13.1080    0.0630   22.9690 C   0  0  0  0  0  0  0  0  0  0  0  0
   11.3080   -1.1930   21.9680 C   0  0  0  0  0  0  0  0  0  0  0  0
   12.6550   -0.9270   22.1210 C   0  0  0  0  0  0  0  0  0  0  0  0
   13.8100   -1.8990   21.2510 Cl  0  0  0  0  0  0  0  0  0  0  0  0
    7.6470   -0.3440   20.3950 N   0  0  0  0  0  0  0  0  0  0  0  0
    6.6350    0.0710   19.4980 C   0  0  1  0  0  0  0  0  0  0  0  0
    5.6510    1.0210   19.8310 C   0  0  1  0  0  0  0  0  0  0  0  0
    4.9940    1.6800   18.7930 C   0  0  0  0  0  0  0  0  0  0  0  0
    5.3550    1.3860   17.4940 C   0  0  0  0  0  0  0  0  0  0  0  0
    6.2810    0.4830   17.1630 N   0  0  0  0  0  0  0  0  0  0  0  0
    6.8820   -0.1770   18.1550 C   0  0  0  0  0  0  0  0  0  0  0  0
    5.2190    1.3300   21.2220 C   0  0  1  0  0  0  0  0  0  0  0  0
    4.9520    2.6480   21.6000 C   0  0  0  0  0  0  0  0  0  0  0  0
    4.3740    2.9290   22.8290 C   0  0  0  0  0  0  0  0  0  0  0  0
    4.0680    1.9040   23.7030 C   0  0  0  0  0  0  0  0  0  0  0  0
    4.3440    0.5960   23.3520 C   0  0  0  0  0  0  0  0  0  0  0  0
    4.9210    0.3090   22.1250 C   0  0  0  0  0  0  0  0  0  0  0  0
  2  1  1  6
  3  2  1  0
  4  3  1  6
  5  4  1  0
  6  5  1  0
  7  6  1  0
  8  4  1  0
  9  8  1  0
  9  7  1  0
 10  9  1  0
 11  2  1  0
 12 11  1  6
 13 12  1  0
 13 14  1  6
 15 14  1  0
 16 15  1  0
 17 16  1  0
 17 12  1  0
 18 13  1  0
 18 19  1  6
 20 19  1  0
 21 20  1  0
 22 21  1  0
 23 18  1  0
 23 22  1  0
M  END
$$$$

     RDKit          3D

 19 20  0  0  0  0  0  0  0  0999 V2000
   11.2590   -3.6970   27.0740 Cl  0  0  0  0  0  0  0  0  0  0  0  0
   11.9220   -2.7610   25.7640 C   0  0  2  0  0  0  0  0  0  0  0  0
   13.2810   -2.8010   25.5280 C   0  0  0  0  0  0  0  0  0  0  0  0
   13.8080   -1.9700   24.5530 C   0  0  0  0  0  0  0  0  0  0  0  0
   12.9780   -1.1220   23.8330 C   0  0  0  0  0  0  0  0  0  0  0  0
   11.0790   -1.9410   25.0400 C   0  0  0  0  0  0  0  0  0  0  0  0
   11.6060   -1.1020   24.0630 C   0  0  0  0  0  0  0  0  0  0  0  0
   10.6910   -0.1990   23.2680 C   0  0  0  0  0  0  0  0  0  0  0  0
    9.5950   -0.9660   22.4890 C   0  0  0  0  0  0  0  0  0  0  0  0
    8.8910   -0.1070   21.4600 C   0  0  0  0  0  0  0  0  0  0  0  0
    9.3760    0.9500   21.0640 O   0  0  0  0  0  0  0  0  0  0  0  0
    7.7100   -0.6020   21.0220 N   0  0  0  0  0  0  0  0  0  0  0  0
    6.9100   -0.0470   19.9870 C   0  0  0  0  0  0  0  0  0  0  0  0
    5.7350    0.6660   20.3000 C   0  0  0  0  0  0  0  0  0  0  0  0
    5.2460    0.8220   21.7170 C   0  0  0  0  0  0  0  0  0  0  0  0
    7.2860   -0.1490   18.6470 C   0  0  0  0  0  0  0  0  0  0  0  0
    6.5970    0.3970   17.6400 N   0  0  0  0  0  0  0  0  0  0  0  0
    5.4840    1.0720   17.9500 C   0  0  0  0  0  0  0  0  0  0  0  0
    5.0240    1.2290   19.2430 C   0  0  0  0  0  0  0  0  0  0  0  0
  2  1  1  1
  3  2  1  0
  4  3  1  0
  5  4  1  0
  6  2  1  0
  7  6  1  0
  7  5  1  0
  8  7  1  0
  9  8  1  0
 10  9  1  0
 11 10  1  0
 12 10  1  0
 13 12  1  0
 14 13  1  0
 15 14  1  0
 16 13  1  0
 17 16  1  0
 18 17  1  0
 19 18  1  0
 19 14  1  0
M  END
$$$$

     RDKit          3D

 16 17  0  0  0  0  0  0  0  0999 V2000
    9.3540    0.8930   20.8550 O   0  0  0  0  0  0  0  0  0  0  0  0
    8.6500    0.0240   21.3600 C   0  0  1  0  0  0  0  0  0  0  0  0
    9.1200   -0.8120   22.5320 C   0  0  0  0  0  0  0  0  0  0  0  0
   10.5920   -0.5690   22.7600 C   0  0  2  0  0  0  0  0  0  0  0  0
   11.0280    0.4040   23.6500 C   0  0  0  0  0  0  0  0  0  0  0  0
   12.3710    0.7430   23.7300 C   0  0  0  0  0  0  0  0  0  0  0  0
   13.3010    0.0980   22.9300 C   0  0  0  0  0  0  0  0  0  0  0  0
   11.5310   -1.2370   21.9830 C   0  0  0  0  0  0  0  0  0  0  0  0
   12.8640   -0.8990   22.0810 C   0  0  2  0  0  0  0  0  0  0  0  0
   14.0280   -1.8200   21.1760 Cl  0  0  0  0  0  0  0  0  0  0  0  0
    7.3450   -0.1530   21.0040 N   0  0  0  0  0  0  0  0  0  0  0  0
    6.8280    0.1540   19.7330 C   0  0  2  0  0  0  0  0  0  0  0  0
    5.5280    0.2080   19.3310 C   0  0  0  0  0  0  0  0  0  0  0  0
    5.5210    0.4560   18.0180 N   0  0  0  0  0  0  0  0  0  0  0  0
    6.7720    0.5270   17.5190 N   0  0  0  0  0  0  0  0  0  0  0  0
    7.5710    0.3360   18.5620 C   0  0  0  0  0  0  0  0  0  0  0  0
  2  1  1  1
  3  2  1  0
  4  3  1  6
  5  4  1  0
  6  5  1  0
  7  6  1  0
  8  4  1  0
  9  8  1  0
  9  7  1  0
  9 10  1  1
 11  2  1  0
 12 11  1  6
 13 12  1  0
 14 13  1  0
 15 14  1  0
 16 15  1  0
 16 12  1  0
M  END
$$$$

     RDKit          3D

 17 18  0  0  0  0  0  0  0  0999 V2000
   13.6820   -1.7490   22.0380 Cl  0  0  0  0  0  0  0  0  0  0  0  0
   12.3890   -0.6700   22.4400 C   0  0  1  0  0  0  0  0  0  0  0  0
   12.6810    0.5220   23.0690 C   0  0  0  0  0  0  0  0  0  0  0  0
   11.6490    1.4120   23.3220 C   0  0  0  0  0  0  0  0  0  0  0  0
   10.3540    1.1100   22.9360 C   0  0  0  0  0  0  0  0  0  0  0  0
   11.1050   -1.0080   22.0670 C   0  0  0  0  0  0  0  0  0  0  0  0
   10.0840   -0.0980   22.3000 C   0  0  0  0  0  0  0  0  0  0  0  0
    8.7910   -0.4360   21.8680 N   0  0  0  0  0  0  0  0  0  0  0  0
    7.9330    0.3960   21.2600 C   0  0  0  0  0  0  0  0  0  0  0  0
    8.1970    1.5640   20.9840 O   0  0  0  0  0  0  0  0  0  0  0  0
    6.5910   -0.2040   20.9170 C   0  0  0  0  0  0  0  0  0  0  0  0
    6.2460    0.1900   19.5040 C   0  0  0  0  0  0  0  0  0  0  0  0
    5.3240    1.1370   19.0940 C   0  0  1  0  0  0  0  0  0  0  0  0
    4.4950    2.0490   19.9410 C   0  0  0  0  0  0  0  0  0  0  0  0
    6.8260   -0.2890   18.3500 C   0  0  0  0  0  0  0  0  0  0  0  0
    6.2470    0.3490   17.3310 N   0  0  0  0  0  0  0  0  0  0  0  0
    5.3060    1.2280   17.7590 N   0  0  0  0  0  0  0  0  0  0  0  0
  2  1  1  6
  3  2  1  0
  4  3  1  0
  5  4  1  0
  6  2  1  0
  7  5  1  0
  7  6  1  0
  8  7  1  0
  9  8  1  0
 10  9  1  0
 11  9  1  0
 12 11  1  0
 13 12  1  0
 13 14  1  1
 15 12  1  0
 16 15  1  0
 17 13  1  0
 17 16  1  0
M  END
$$$$

     RDKit          3D

 20 22  0  0  0  0  0  0  0  0999 V2000
    9.0300    0.8410   21.0620 O   0  0  0  0  0  0  0  0  0  0  0  0
    8.5340   -0.2330   21.3800 C   0  0  0  0  0  0  0  0  0  0  0  0
    8.9990   -0.9910   22.6050 C   0  0  0  0  0  0  0  0  0  0  0  0
   10.4740   -0.7610   22.8270 C   0  0  2  0  0  0  0  0  0  0  0  0
   10.9180    0.1430   23.7820 C   0  0  0  0  0  0  0  0  0  0  0  0
   12.2650    0.4360   23.9090 C   0  0  0  0  0  0  0  0  0  0  0  0
   13.1930   -0.1770   23.0830 C   0  0  0  0  0  0  0  0  0  0  0  0
   11.4080   -1.3950   22.0160 C   0  0  0  0  0  0  0  0  0  0  0  0
   12.7470   -1.0940   22.1540 C   0  0  0  0  0  0  0  0  0  0  0  0
   13.8960   -1.8790   21.1100 Cl  0  0  0  0  0  0  0  0  0  0  0  0
    7.5290   -0.8120   20.6980 N   0  0  0  0  0  0  0  0  0  0  0  0
    6.7640   -0.1480   19.7120 C   0  0  0  0  0  0  0  0  0  0  0  0
    5.6200    0.5760   20.0810 C   0  0  1  0  0  0  0  0  0  0  0  0
    5.1640    0.6900   21.5280 C   0  0  2  0  0  0  0  0  0  0  0  0
    4.0460    1.6290   21.9040 C   0  0  0  0  0  0  0  0  0  0  0  0
    5.4400    1.9570   22.2970 C   0  0  0  0  0  0  0  0  0  0  0  0
    4.9240    1.2490   19.0820 C   0  0  0  0  0  0  0  0  0  0  0  0
    5.3890    1.1980   17.7820 C   0  0  0  0  0  0  0  0  0  0  0  0
    6.4830    0.5200   17.4140 N   0  0  0  0  0  0  0  0  0  0  0  0
    7.1430   -0.1430   18.3690 C   0  0  0  0  0  0  0  0  0  0  0  0
  2  1  1  0
  3  2  1  0
  4  3  1  6
  5  4  1  0
  6  5  1  0
  7  6  1  0
  8  4  1  0
  9  8  1  0
  9  7  1  0
 10  9  1  0
 11  2  1  0
 12 11  1  0
 13 12  1  0
 14 13  1  0
 14 15  1  6
 16 14  1  0
 16 15  1  0
 13 17  1  1
 18 17  1  0
 19 18  1  0
 20 19  1  0
 20 12  1  0
M  END
$$$$

     RDKit          3D

 20 21  0  0  0  0  0  0  0  0999 V2000
   13.8710   -1.8970   21.2100 Cl  0  0  0  0  0  0  0  0  0  0  0  0
   12.7300   -1.0490   22.2150 C   0  0  0  0  0  0  0  0  0  0  0  0
   13.1930   -0.1730   23.1760 C   0  0  0  0  0  0  0  0  0  0  0  0
   12.2790    0.4260   24.0270 C   0  0  0  0  0  0  0  0  0  0  0  0
   10.9230    0.1640   23.8900 C   0  0  0  0  0  0  0  0  0  0  0  0
   11.3840   -1.3080   22.0590 C   0  0  0  0  0  0  0  0  0  0  0  0
   10.4630   -0.6910   22.8980 C   0  0  0  0  0  0  0  0  0  0  0  0
    8.9770   -0.9380   22.6830 C   0  0  1  0  0  0  0  0  0  0  0  0
    8.1580   -0.9020   23.9710 C   0  0  0  0  0  0  0  0  0  0  0  0
    6.8000   -1.2200   23.6900 O   0  0  0  0  0  0  0  0  0  0  0  0
    8.4580    0.0360   21.6250 C   0  0  1  0  0  0  0  0  0  0  0  0
    8.7840    1.2140   21.6070 O   0  0  0  0  0  0  0  0  0  0  0  0
    7.7050   -0.5270   20.6630 N   0  0  0  0  0  0  0  0  0  0  0  0
    6.7100   -0.0620   19.7810 C   0  0  1  0  0  0  0  0  0  0  0  0
    5.6590    0.7800   20.1880 C   0  0  2  0  0  0  0  0  0  0  0  0
    5.2640    0.9280   21.6350 C   0  0  0  0  0  0  0  0  0  0  0  0
    6.9850   -0.1670   18.4200 C   0  0  0  0  0  0  0  0  0  0  0  0
    6.3230    0.5040   17.4770 N   0  0  0  0  0  0  0  0  0  0  0  0
    5.3060    1.2770   17.8730 C   0  0  0  0  0  0  0  0  0  0  0  0
    4.9450    1.4380   19.1960 C   0  0  0  0  0  0  0  0  0  0  0  0
  2  1  1  0
  3  2  1  0
  4  3  1  0
  5  4  1  0
  6  2  1  0
  7  6  1  0
  7  5  1  0
  8  7  1  0
  8  9  1  1
 10  9  1  0
 11  8  1  0
 11 12  1  6
 13 11  1  0
 14 13  1  1
 15 14  1  0
 15 16  1  6
 17 14  1  0
 18 17  1  0
 19 18  1  0
 20 19  1  0
 20 15  1  0
M  END
$$$$

     RDKit          3D

 16 16  0  0  0  0  0  0  0  0999 V2000
    9.7330    0.9630   21.2340 O   0  0  0  0  0  0  0  0  0  0  0  0
    9.3370   -0.1840   21.4330 C   0  0  0  0  0  0  0  0  0  0  0  0
   10.1790   -1.1660   22.2450 C   0  0  1  0  0  0  0  0  0  0  0  0
   11.5160   -0.6600   22.4320 O   0  0  0  0  0  0  0  0  0  0  0  0
   12.4650   -1.1420   21.5810 C   0  0  2  0  0  0  0  0  0  0  0  0
   13.0680   -2.1690   22.1870 F   0  0  0  0  0  0  0  0  0  0  0  0
   13.4370   -0.2160   21.4910 F   0  0  0  0  0  0  0  0  0  0  0  0
    9.6220   -1.3840   23.6360 C   0  0  0  0  0  0  0  0  0  0  0  0
    8.1790   -0.6900   20.9370 N   0  0  0  0  0  0  0  0  0  0  0  0
    7.2850   -0.0820   20.0200 C   0  0  0  0  0  0  0  0  0  0  0  0
    6.1070    0.5320   20.4860 C   0  0  1  0  0  0  0  0  0  0  0  0
    5.8460    0.7480   21.9550 C   0  0  0  0  0  0  0  0  0  0  0  0
    5.2200    1.0210   19.5330 C   0  0  0  0  0  0  0  0  0  0  0  0
    5.5360    0.9260   18.1920 C   0  0  0  0  0  0  0  0  0  0  0  0
    6.6690    0.3840   17.7360 N   0  0  0  0  0  0  0  0  0  0  0  0
    7.5180   -0.1150   18.6440 C   0  0  0  0  0  0  0  0  0  0  0  0
  2  1  1  0
  3  2  1  0
  4  3  1  0
  5  4  1  0
  5  6  1  1
  7  5  1  0
  3  8  1  1
  9  2  1  0
 10  9  1  0
 11 10  1  0
 11 12  1  1
 13 11  1  0
 14 13  1  0
 15 14  1  0
 16 15  1  0
 16 10  1  0
M  END
$$$$

     RDKit          3D

 23 24  0  0  0  0  0  0  0  0999 V2000
    8.9630    0.6150   20.9430 O   0  0  0  0  0  0  0  0  0  0  0  0
    8.3290   -0.3880   21.2650 C   0  0  0  0  0  0  0  0  0  0  0  0
    7.1210   -0.7010   20.7580 N   0  0  0  0  0  0  0  0  0  0  0  0
    6.4920    0.0070   19.7060 C   0  0  0  0  0  0  0  0  0  0  0  0
    5.3760    0.8110   19.9790 C   0  0  1  0  0  0  0  0  0  0  0  0
    4.8380    0.9810   21.3780 C   0  0  0  0  0  0  0  0  0  0  0  0
    4.8210    1.5150   18.9140 C   0  0  0  0  0  0  0  0  0  0  0  0
    5.3840    1.4110   17.6590 C   0  0  0  0  0  0  0  0  0  0  0  0
    6.4540    0.6540   17.3880 N   0  0  0  0  0  0  0  0  0  0  0  0
    6.9880   -0.0350   18.4030 C   0  0  0  0  0  0  0  0  0  0  0  0
    8.8640   -1.3920   22.2680 C   0  0  0  0  0  0  0  0  0  0  0  0
   10.2330   -0.9660   22.7460 C   0  0  1  0  0  0  0  0  0  0  0  0
   11.3790   -1.4710   22.1430 C   0  0  0  0  0  0  0  0  0  0  0  0
   12.6170   -0.9960   22.5150 C   0  0  0  0  0  0  0  0  0  0  0  0
   14.0390   -1.6420   21.7320 Cl  0  0  0  0  0  0  0  0  0  0  0  0
   12.7580   -0.0400   23.5010 C   0  0  0  0  0  0  0  0  0  0  0  0
   11.6270    0.4410   24.1430 C   0  0  0  0  0  0  0  0  0  0  0  0
   10.3730   -0.0030   23.7450 C   0  0  1  0  0  0  0  0  0  0  0  0
    9.1980    0.5550   24.1800 O   0  0  0  0  0  0  0  0  0  0  0  0
    8.8650    0.4830   25.5770 C   0  0  0  0  0  0  0  0  0  0  0  0
    7.3730    0.6750   25.7070 C   0  0  0  0  0  0  0  0  0  0  0  0
    6.5590   -0.4570   25.0780 C   0  0  0  0  0  0  0  0  0  0  0  0
    5.0640   -0.2890   25.2300 C   0  0  0  0  0  0  0  0  0  0  0  0
  2  1  1  0
  3  2  1  0
  4  3  1  0
  5  4  1  0
  5  6  1  1
  7  5  1  0
  8  7  1  0
  9  8  1  0
 10  9  1  0
 10  4  1  0
 11  2  1  0
 12 11  1  6
 13 12  1  0
 14 13  1  0
 15 14  1  0
 16 14  1  0
 17 16  1  0
 18 12  1  0
 18 17  1  0
 18 19  1  6
 20 19  1  0
 21 20  1  0
 22 21  1  0
 23 22  1  0
M  END
$$$$

     RDKit          3D

 27 29  0  0  0  0  0  0  0  0999 V2000
    8.7890    1.0000   20.8530 O   0  0  0  0  0  0  0  0  0  0  0  0
    8.2950   -0.0220   21.3060 C   0  0  0  0  0  0  0  0  0  0  0  0
    7.1530   -0.5610   20.8290 N   0  0  0  0  0  0  0  0  0  0  0  0
    6.4330    0.0170   19.7510 C   0  0  1  0  0  0  0  0  0  0  0  0
    5.2980    0.7980   20.0210 C   0  0  0  0  0  0  0  0  0  0  0  0
    4.7760    0.9860   21.4230 C   0  0  0  0  0  0  0  0  0  0  0  0
    4.6930    1.4400   18.9460 C   0  0  0  0  0  0  0  0  0  0  0  0
    5.2270    1.3010   17.6770 C   0  0  0  0  0  0  0  0  0  0  0  0
    6.3080    0.5590   17.4070 N   0  0  0  0  0  0  0  0  0  0  0  0
    6.8850   -0.0770   18.4330 C   0  0  0  0  0  0  0  0  0  0  0  0
    8.9370   -0.7600   22.4640 C   0  0  0  0  0  0  0  0  0  0  0  0
   10.3300   -0.2440   22.7620 C   0  0  0  0  0  0  0  0  0  0  0  0
   11.4290   -1.0850   22.6430 C   0  0  0  0  0  0  0  0  0  0  0  0
   12.6940   -0.5820   22.8670 C   0  0  2  0  0  0  0  0  0  0  0  0
   14.0490   -1.6750   22.8580 Cl  0  0  0  0  0  0  0  0  0  0  0  0
   12.9090    0.7450   23.1830 C   0  0  0  0  0  0  0  0  0  0  0  0
   10.5360    1.0850   23.1170 C   0  0  0  0  0  0  0  0  0  0  0  0
   11.8160    1.6030   23.3210 C   0  0  0  0  0  0  0  0  0  0  0  0
   12.0190    3.0300   23.7020 C   0  0  2  0  0  0  0  0  0  0  0  0
   13.1530    3.7020   23.2440 C   0  0  0  0  0  0  0  0  0  0  0  0
   13.4250    5.0000   23.6470 C   0  0  0  0  0  0  0  0  0  0  0  0
   11.1780    3.7440   24.5480 C   0  0  0  0  0  0  0  0  0  0  0  0
   10.0920    3.1420   25.0600 F   0  0  0  0  0  0  0  0  0  0  0  0
   11.4470    5.0380   24.9300 C   0  0  0  0  0  0  0  0  0  0  0  0
   10.5780    5.6760   25.7380 F   0  0  0  0  0  0  0  0  0  0  0  0
   12.5870    5.6970   24.5220 C   0  0  1  0  0  0  0  0  0  0  0  0
   12.9850    7.0490   25.0550 C   0  0  0  0  0  0  0  0  0  0  0  0
  2  1  1  0
  3  2  1  0
  4  3  1  1
  5  4  1  0
  6  5  1  0
  7  5  1  0
  8  7  1  0
  9  8  1  0
 10  9  1  0
 10  4  1  0
 11  2  1  0
 12 11  1  0
 13 12  1  0
 14 13  1  0
 14 15  1  1
 16 14  1  0
 17 12  1  0
 18 17  1  0
 18 16  1  0
 19 18  1  1
 20 19  1  0
 21 20  1  0
 22 19  1  0
 23 22  1  0
 24 22  1  0
 25 24  1  0
 26 24  1  0
 26 21  1  0
 26 27  1  1
M  END
$$$$

     RDKit          3D

 25 27  0  0  0  0  0  0  0  0999 V2000
   14.0290    6.9570   21.5310 O   0  0  0  0  0  0  0  0  0  0  0  0
   13.5080    5.8930   21.8520 C   0  0  0  0  0  0  0  0  0  0  0  0
   13.3380    4.5270   21.2050 C   0  0  0  0  0  0  0  0  0  0  0  0
   12.8700    5.5090   22.9720 N   0  0  0  0  0  0  0  0  0  0  0  0
   12.4960    4.1960   22.4440 C   0  0  2  0  0  0  0  0  0  0  0  0
   13.1130    3.1020   23.1620 O   0  0  0  0  0  0  0  0  0  0  0  0
   12.6460    1.8360   22.8710 C   0  0  0  0  0  0  0  0  0  0  0  0
   13.5160    0.8220   22.4940 C   0  0  0  0  0  0  0  0  0  0  0  0
   12.9840   -0.4200   22.2060 C   0  0  0  0  0  0  0  0  0  0  0  0
   14.0530   -1.7040   21.7070 Cl  0  0  0  0  0  0  0  0  0  0  0  0
   11.6280   -0.6690   22.2870 C   0  0  0  0  0  0  0  0  0  0  0  0
   11.2820    1.6070   22.9620 C   0  0  0  0  0  0  0  0  0  0  0  0
   10.7600    0.3570   22.6530 C   0  0  1  0  0  0  0  0  0  0  0  0
    9.2530    0.1380   22.6580 C   0  0  2  0  0  0  0  0  0  0  0  0
    8.7900   -1.2700   23.0710 C   0  0  0  0  0  0  0  0  0  0  0  0
    8.5380    0.9690   21.5870 C   0  0  0  0  0  0  0  0  0  0  0  0
    8.4500    2.1910   21.6800 O   0  0  0  0  0  0  0  0  0  0  0  0
    8.0650    0.2690   20.5170 N   0  0  0  0  0  0  0  0  0  0  0  0
    6.9050    0.4170   19.7070 C   0  0  1  0  0  0  0  0  0  0  0  0
    5.7780    1.1510   20.1450 C   0  0  2  0  0  0  0  0  0  0  0  0
    5.3930    1.2390   21.6000 C   0  0  0  0  0  0  0  0  0  0  0  0
    4.8990    1.6130   19.1730 C   0  0  0  0  0  0  0  0  0  0  0  0
    5.1160    1.2940   17.8490 C   0  0  0  0  0  0  0  0  0  0  0  0
    6.1280    0.5300   17.4290 N   0  0  0  0  0  0  0  0  0  0  0  0
    6.9950    0.1000   18.3520 C   0  0  0  0  0  0  0  0  0  0  0  0
  2  1  1  0
  3  2  1  0
  4  2  1  0
  5  3  1  0
  5  4  1  0
  5  6  1  1
  7  6  1  0
  8  7  1  0
  9  8  1  0
 10  9  1  0
 11  9  1  0
 12  7  1  0
 13 12  1  6
 13 11  1  0
 14 13  1  0
 14 15  1  6
 16 14  1  0
 17 16  1  0
 18 16  1  0
 19 18  1  6
 20 19  1  0
 20 21  1  1
 22 20  1  0
 23 22  1  0
 24 23  1  0
 25 24  1  0
 25 19  1  0
M  END
$$$$

     RDKit          3D

 16 16  0  0  0  0  0  0  0  0999 V2000
    9.7440    1.0290   21.1050 O   0  0  0  0  0  0  0  0  0  0  0  0
    9.1850    0.0580   21.6080 C   0  0  0  0  0  0  0  0  0  0  0  0
    9.8340   -0.7040   22.7590 C   0  0  2  0  0  0  0  0  0  0  0  0
   10.9290    0.0530   23.3030 O   0  0  0  0  0  0  0  0  0  0  0  0
   10.6210    0.8340   24.3560 C   0  0  1  0  0  0  0  0  0  0  0  0
   10.9250    0.1050   25.4360 F   0  0  0  0  0  0  0  0  0  0  0  0
   11.4400    1.8980   24.2040 F   0  0  0  0  0  0  0  0  0  0  0  0
   10.4230   -2.0240   22.3150 C   0  0  0  0  0  0  0  0  0  0  0  0
    7.9580   -0.3890   21.2480 N   0  0  0  0  0  0  0  0  0  0  0  0
    7.1560    0.0850   20.1820 C   0  0  0  0  0  0  0  0  0  0  0  0
    5.9210    0.7010   20.4550 C   0  0  0  0  0  0  0  0  0  0  0  0
    5.4370    0.9330   21.8630 C   0  0  0  0  0  0  0  0  0  0  0  0
    5.1470    1.0940   19.3670 C   0  0  0  0  0  0  0  0  0  0  0  0
    5.6100    0.8700   18.0850 C   0  0  0  0  0  0  0  0  0  0  0  0
    6.7890    0.3060   17.8120 N   0  0  0  0  0  0  0  0  0  0  0  0
    7.5410   -0.0770   18.8490 C   0  0  0  0  0  0  0  0  0  0  0  0
  2  1  1  0
  3  2  1  0
  4  3  1  0
  5  4  1  0
  5  6  1  1
  7  5  1  0
  3  8  1  6
  9  2  1  0
 10  9  1  0
 11 10  1  0
 12 11  1  0
 13 11  1  0
 14 13  1  0
 15 14  1  0
 16 15  1  0
 16 10  1  0
M  END
$$$$

     RDKit          3D

 26 28  0  0  0  0  0  0  0  0999 V2000
    8.7350    0.6050   20.8670 O   0  0  0  0  0  0  0  0  0  0  0  0
    8.1710   -0.4750   21.0140 C   0  0  0  0  0  0  0  0  0  0  0  0
    7.0430   -0.8240   20.3740 N   0  0  0  0  0  0  0  0  0  0  0  0
    6.3770   -0.0370   19.4190 C   0  0  0  0  0  0  0  0  0  0  0  0
    5.2420    0.7010   19.7900 C   0  0  1  0  0  0  0  0  0  0  0  0
    4.7470    0.7430   21.2130 C   0  0  0  0  0  0  0  0  0  0  0  0
    4.6340    1.4740   18.8080 C   0  0  0  0  0  0  0  0  0  0  0  0
    5.1710    1.5020   17.5360 C   0  0  0  0  0  0  0  0  0  0  0  0
    6.2650    0.8160   17.1780 N   0  0  0  0  0  0  0  0  0  0  0  0
    6.8470    0.0520   18.1110 C   0  0  0  0  0  0  0  0  0  0  0  0
    8.6930   -1.5320   21.9660 C   0  0  0  0  0  0  0  0  0  0  0  0
    9.9870   -1.0930   22.6030 C   0  0  0  0  0  0  0  0  0  0  0  0
   11.2020   -1.5510   22.1080 C   0  0  0  0  0  0  0  0  0  0  0  0
   12.3740   -1.1560   22.7150 C   0  0  2  0  0  0  0  0  0  0  0  0
   13.8800   -1.8280   22.1570 Cl  0  0  0  0  0  0  0  0  0  0  0  0
   12.3810   -0.3000   23.7970 C   0  0  0  0  0  0  0  0  0  0  0  0
    9.9710   -0.2440   23.7010 C   0  0  0  0  0  0  0  0  0  0  0  0
   11.1640    0.1350   24.2960 C   0  0  0  0  0  0  0  0  0  0  0  0
   11.2530    0.9710   25.3800 O   0  0  0  0  0  0  0  0  0  0  0  0
   10.0610    1.5740   25.9000 C   0  0  0  0  0  0  0  0  0  0  0  0
    9.3050    0.6260   26.7660 C   0  0  0  0  0  0  0  0  0  0  0  0
    9.8750   -0.5060   27.2010 O   0  0  0  0  0  0  0  0  0  0  0  0
    8.8990   -1.1450   28.0130 N   0  0  0  0  0  0  0  0  0  0  0  0
    8.1000    0.7910   27.1890 N   0  0  0  0  0  0  0  0  0  0  0  0
    7.8900   -0.3260   27.9600 C   0  0  0  0  0  0  0  0  0  0  0  0
    6.5960   -0.5490   28.6560 C   0  0  0  0  0  0  0  0  0  0  0  0
  2  1  1  0
  3  2  1  0
  4  3  1  0
  5  4  1  0
  5  6  1  1
  7  5  1  0
  8  7  1  0
  9  8  1  0
 10  9  1  0
 10  4  1  0
 11  2  1  0
 12 11  1  0
 13 12  1  0
 14 13  1  0
 14 15  1  1
 16 14  1  0
 17 12  1  0
 18 17  1  0
 18 16  1  0
 19 18  1  0
 20 19  1  0
 21 20  1  0
 22 21  1  0
 23 22  1  0
 24 21  1  0
 25 24  1  0
 25 23  1  0
 26 25  1  0
M  END
$$$$

     RDKit          3D

 23 24  0  0  0  0  0  0  0  0999 V2000
   11.3710    5.5510   24.0820 O   0  0  0  0  0  0  0  0  0  0  0  0
   10.7460    4.2710   24.0950 S   0  0  1  0  0  0  0  0  0  0  0  0
    9.9530    3.8970   25.2190 O   0  0  0  0  0  0  0  0  0  0  0  0
    9.7850    4.2210   22.7970 N   0  0  0  0  0  0  0  0  0  0  0  0
   11.8470    3.0720   23.8900 N   0  0  0  0  0  0  0  0  0  0  0  0
   11.6730    1.6770   23.5580 C   0  0  2  0  0  0  0  0  0  0  0  0
   12.7930    0.9270   23.1980 C   0  0  0  0  0  0  0  0  0  0  0  0
   12.6080   -0.3590   22.7210 C   0  0  2  0  0  0  0  0  0  0  0  0
   13.9910   -1.2690   22.1770 Cl  0  0  0  0  0  0  0  0  0  0  0  0
   11.3570   -0.9260   22.6130 C   0  0  0  0  0  0  0  0  0  0  0  0
   10.4060    1.0980   23.4820 C   0  0  0  0  0  0  0  0  0  0  0  0
   10.2380   -0.1930   22.9850 C   0  0  1  0  0  0  0  0  0  0  0  0
    8.8540   -0.7380   22.7060 C   0  0  0  0  0  0  0  0  0  0  0  0
    8.2810   -0.0930   21.4590 C   0  0  0  0  0  0  0  0  0  0  0  0
    8.8480    0.8400   20.9110 O   0  0  0  0  0  0  0  0  0  0  0  0
    7.1020   -0.5910   21.0270 N   0  0  0  0  0  0  0  0  0  0  0  0
    6.4380   -0.0290   19.9060 C   0  0  1  0  0  0  0  0  0  0  0  0
    5.2970    0.7740   20.0940 C   0  0  0  0  0  0  0  0  0  0  0  0
    4.6770    0.9780   21.4540 C   0  0  0  0  0  0  0  0  0  0  0  0
    6.9420   -0.1710   18.6110 C   0  0  0  0  0  0  0  0  0  0  0  0
    6.4260    0.4440   17.5430 N   0  0  0  0  0  0  0  0  0  0  0  0
    5.3430    1.2050   17.7360 C   0  0  0  0  0  0  0  0  0  0  0  0
    4.7540    1.3900   18.9710 C   0  0  0  0  0  0  0  0  0  0  0  0
  2  1  1  0
  3  2  1  0
  2  4  1  6
  5  2  1  0
  6  5  1  6
  7  6  1  0
  8  7  1  0
  8  9  1  6
 10  8  1  0
 11  6  1  0
 12 11  1  0
 12 10  1  0
 12 13  1  6
 14 13  1  0
 15 14  1  0
 16 14  1  0
 17 16  1  1
 18 17  1  0
 19 18  1  0
 20 17  1  0
 21 20  1  0
 22 21  1  0
 23 22  1  0
 23 18  1  0
M  END
$$$$

     RDKit          3D

 25 27  0  0  0  0  0  0  0  0999 V2000
   13.4950    0.6360   23.7070 Cl  0  0  0  0  0  0  0  0  0  0  0  0
   11.8330    0.1800   23.9280 C   0  0  0  0  0  0  0  0  0  0  0  0
   11.1850   -0.4880   22.9110 C   0  0  0  0  0  0  0  0  0  0  0  0
   11.2130    0.4590   25.1310 C   0  0  0  0  0  0  0  0  0  0  0  0
    9.9030    0.0310   25.3240 C   0  0  0  0  0  0  0  0  0  0  0  0
    9.2660    0.3020   26.5330 N   0  0  0  0  0  0  0  0  0  0  0  0
    7.9070   -0.0780   26.8970 C   0  0  2  0  0  0  0  0  0  0  0  0
    6.8630    0.9860   26.5060 C   0  0  1  0  0  0  0  0  0  0  0  0
    6.5150    0.9210   25.1220 O   0  0  0  0  0  0  0  0  0  0  0  0
    5.6730    0.6270   27.3830 C   0  0  0  0  0  0  0  0  0  0  0  0
    6.2710    0.1530   28.7020 C   0  0  0  0  0  0  0  0  0  0  0  0
    7.7260   -0.2230   28.4150 C   0  0  0  0  0  0  0  0  0  0  0  0
    9.2440   -0.6530   24.3060 C   0  0  0  0  0  0  0  0  0  0  0  0
    9.8730   -0.9030   23.0920 C   0  0  1  0  0  0  0  0  0  0  0  0
    9.1190   -1.5540   21.9600 C   0  0  0  0  0  0  0  0  0  0  0  0
    8.4660   -0.5000   21.0900 C   0  0  0  0  0  0  0  0  0  0  0  0
    9.0050    0.5820   20.8590 O   0  0  0  0  0  0  0  0  0  0  0  0
    7.2660   -0.8570   20.5910 N   0  0  0  0  0  0  0  0  0  0  0  0
    6.5940   -0.1160   19.5980 C   0  0  0  0  0  0  0  0  0  0  0  0
    5.5020    0.6920   19.9510 C   0  0  0  0  0  0  0  0  0  0  0  0
    5.0420    0.8310   21.3790 C   0  0  0  0  0  0  0  0  0  0  0  0
    7.0110   -0.1340   18.2670 C   0  0  0  0  0  0  0  0  0  0  0  0
    6.4220    0.5740   17.3010 N   0  0  0  0  0  0  0  0  0  0  0  0
    5.3670    1.3240   17.6480 C   0  0  0  0  0  0  0  0  0  0  0  0
    4.8830    1.4100   18.9360 C   0  0  0  0  0  0  0  0  0  0  0  0
  2  1  1  0
  3  2  1  0
  4  2  1  0
  5  4  1  0
  6  5  1  0
  7  6  1  1
  8  7  1  0
  8  9  1  6
 10  8  1  0
 11 10  1  0
 12  7  1  0
 12 11  1  0
 13  5  1  0
 14 13  1  0
 14  3  1  0
 14 15  1  6
 16 15  1  0
 17 16  1  0
 18 16  1  0
 19 18  1  0
 20 19  1  0
 21 20  1  0
 22 19  1  0
 23 22  1  0
 24 23  1  0
 25 24  1  0
 25 20  1  0
M  END
$$$$

     RDKit          3D

 23 24  0  0  0  0  0  0  0  0999 V2000
    8.8900    0.9170   21.0510 O   0  0  0  0  0  0  0  0  0  0  0  0
    8.3870   -0.1560   21.3620 C   0  0  0  0  0  0  0  0  0  0  0  0
    7.3360   -0.6940   20.7160 N   0  0  0  0  0  0  0  0  0  0  0  0
    6.5950   -0.0410   19.7080 C   0  0  1  0  0  0  0  0  0  0  0  0
    5.4560    0.7100   20.0560 C   0  0  1  0  0  0  0  0  0  0  0  0
    5.0000    0.8540   21.4860 C   0  0  0  0  0  0  0  0  0  0  0  0
    4.7950    1.3780   19.0330 C   0  0  0  0  0  0  0  0  0  0  0  0
    5.2770    1.2970   17.7420 C   0  0  0  0  0  0  0  0  0  0  0  0
    6.3630    0.5930   17.4000 N   0  0  0  0  0  0  0  0  0  0  0  0
    6.9970   -0.0690   18.3740 C   0  0  0  0  0  0  0  0  0  0  0  0
    8.9050   -0.9790   22.5270 C   0  0  0  0  0  0  0  0  0  0  0  0
   10.3530   -0.6560   22.8210 C   0  0  1  0  0  0  0  0  0  0  0  0
   11.3700   -1.3740   22.2050 C   0  0  0  0  0  0  0  0  0  0  0  0
   12.6710   -0.9300   22.3140 C   0  0  0  0  0  0  0  0  0  0  0  0
   13.9450   -1.8640   21.5910 Cl  0  0  0  0  0  0  0  0  0  0  0  0
   12.9920    0.2260   22.9970 C   0  0  0  0  0  0  0  0  0  0  0  0
   10.6800    0.4670   23.5730 C   0  0  0  0  0  0  0  0  0  0  0  0
   11.9870    0.9370   23.6420 C   0  0  0  0  0  0  0  0  0  0  0  0
   12.3210    2.1770   24.4380 C   0  0  0  0  0  0  0  0  0  0  0  0
   11.9780    3.4650   23.8450 N   0  0  0  0  0  0  0  0  0  0  0  0
   10.8100    3.9560   23.4200 C   0  0  0  0  0  0  0  0  0  0  0  0
    9.9620    3.2500   22.8720 O   0  0  0  0  0  0  0  0  0  0  0  0
   10.5850    5.4220   23.6490 C   0  0  0  0  0  0  0  0  0  0  0  0
  2  1  1  0
  3  2  1  0
  4  3  1  1
  5  4  1  0
  5  6  1  1
  7  5  1  0
  8  7  1  0
  9  8  1  0
 10  9  1  0
 10  4  1  0
 11  2  1  0
 12 11  1  6
 13 12  1  0
 14 13  1  0
 15 14  1  0
 16 14  1  0
 17 12  1  0
 18 17  1  0
 18 16  1  0
 19 18  1  0
 20 19  1  0
 21 20  1  0
 22 21  1  0
 23 21  1  0
M  END
$$$$

     RDKit          3D

 21 23  0  0  0  0  0  0  0  0999 V2000
   13.8790   -1.7470   21.1630 Cl  0  0  0  0  0  0  0  0  0  0  0  0
   12.7600   -0.9220   22.2080 C   0  0  2  0  0  0  0  0  0  0  0  0
   13.2390    0.0000   23.1150 C   0  0  0  0  0  0  0  0  0  0  0  0
   12.3600    0.5900   24.0050 C   0  0  0  0  0  0  0  0  0  0  0  0
   11.4210   -1.2480   22.1420 C   0  0  0  0  0  0  0  0  0  0  0  0
   10.5150   -0.6310   23.0030 C   0  0  1  0  0  0  0  0  0  0  0  0
   11.0100    0.2760   23.9450 C   0  0  0  0  0  0  0  0  0  0  0  0
   10.2090    0.8940   24.8780 O   0  0  0  0  0  0  0  0  0  0  0  0
    8.8110    1.0050   24.5320 C   0  0  0  0  0  0  0  0  0  0  0  0
    8.2360   -0.3060   24.0600 C   0  0  0  0  0  0  0  0  0  0  0  0
    9.0200   -0.8200   22.8370 C   0  0  1  0  0  0  0  0  0  0  0  0
    8.5840   -0.0550   21.5870 C   0  0  0  0  0  0  0  0  0  0  0  0
    9.2180    0.9020   21.1580 O   0  0  0  0  0  0  0  0  0  0  0  0
    7.4490   -0.5090   21.0170 N   0  0  0  0  0  0  0  0  0  0  0  0
    6.7820    0.0850   19.9200 C   0  0  0  0  0  0  0  0  0  0  0  0
    5.6290    0.8560   20.1550 C   0  0  1  0  0  0  0  0  0  0  0  0
    5.1200    1.1260   21.5480 C   0  0  0  0  0  0  0  0  0  0  0  0
    7.2400   -0.0510   18.6080 C   0  0  0  0  0  0  0  0  0  0  0  0
    6.6300    0.5010   17.5550 N   0  0  0  0  0  0  0  0  0  0  0  0
    5.5240    1.2190   17.7900 C   0  0  0  0  0  0  0  0  0  0  0  0
    4.9980    1.4170   19.0500 C   0  0  0  0  0  0  0  0  0  0  0  0
  2  1  1  1
  3  2  1  0
  4  3  1  0
  5  2  1  0
  6  5  1  6
  7  6  1  0
  7  4  1  0
  8  7  1  0
  9  8  1  0
 10  9  1  0
 11 10  1  0
 11  6  1  0
 11 12  1  6
 13 12  1  0
 14 12  1  0
 15 14  1  0
 16 15  1  0
 16 17  1  1
 18 15  1  0
 19 18  1  0
 20 19  1  0
 21 20  1  0
 21 16  1  0
M  END
$$$$

     RDKit          3D

 25 26  0  0  0  0  0  0  0  0999 V2000
    6.2150    1.3890   24.6080 N   0  0  0  0  0  0  0  0  0  0  0  0
    6.1140    0.7740   25.5580 C   0  0  0  0  0  0  0  0  0  0  0  0
    6.0450   -0.0430   26.7750 C   0  0  2  0  0  0  0  0  0  0  0  0
    4.7500   -0.8600   26.7250 C   0  0  0  0  0  0  0  0  0  0  0  0
    6.0450    0.8990   27.9840 C   0  0  0  0  0  0  0  0  0  0  0  0
    7.2900   -0.9490   26.8180 C   0  0  0  0  0  0  0  0  0  0  0  0
    8.5550   -0.2530   26.6940 N   0  0  0  0  0  0  0  0  0  0  0  0
    9.3520   -0.2150   25.5610 C   0  0  0  0  0  0  0  0  0  0  0  0
   10.5710    0.4550   25.5820 C   0  0  0  0  0  0  0  0  0  0  0  0
   11.3660    0.4240   24.4520 C   0  0  0  0  0  0  0  0  0  0  0  0
   12.9000    1.2480   24.4770 Cl  0  0  0  0  0  0  0  0  0  0  0  0
   10.9730   -0.2270   23.3000 C   0  0  0  0  0  0  0  0  0  0  0  0
    8.9390   -0.8590   24.3980 C   0  0  0  0  0  0  0  0  0  0  0  0
    9.7360   -0.8600   23.2610 C   0  0  1  0  0  0  0  0  0  0  0  0
    9.2300   -1.4810   21.9800 C   0  0  0  0  0  0  0  0  0  0  0  0
    8.4700   -0.4560   21.1630 C   0  0  0  0  0  0  0  0  0  0  0  0
    8.9570    0.6330   20.8730 O   0  0  0  0  0  0  0  0  0  0  0  0
    7.2420   -0.8440   20.7600 N   0  0  0  0  0  0  0  0  0  0  0  0
    6.5570   -0.1110   19.7660 C   0  0  1  0  0  0  0  0  0  0  0  0
    5.5170    0.7560   20.1190 C   0  0  1  0  0  0  0  0  0  0  0  0
    5.1290    0.9920   21.5550 C   0  0  0  0  0  0  0  0  0  0  0  0
    6.9670   -0.1680   18.4360 C   0  0  0  0  0  0  0  0  0  0  0  0
    6.4270    0.5850   17.4700 N   0  0  0  0  0  0  0  0  0  0  0  0
    5.3960    1.3690   17.8070 C   0  0  0  0  0  0  0  0  0  0  0  0
    4.9120    1.4780   19.0960 C   0  0  0  0  0  0  0  0  0  0  0  0
  2  1  1  0
  3  2  1  0
  3  4  1  6
  5  3  1  0
  6  3  1  0
  7  6  1  0
  8  7  1  0
  9  8  1  0
 10  9  1  0
 11 10  1  0
 12 10  1  0
 13  8  1  0
 14 13  1  0
 14 12  1  0
 14 15  1  6
 16 15  1  0
 17 16  1  0
 18 16  1  0
 19 18  1  1
 20 19  1  0
 20 21  1  1
 22 19  1  0
 23 22  1  0
 24 23  1  0
 25 24  1  0
 25 20  1  0
M  END
$$$$

     RDKit          3D

 26 28  0  0  0  0  0  0  0  0999 V2000
    6.2910    0.7650   25.3900 F   0  0  0  0  0  0  0  0  0  0  0  0
    5.7240   -0.2900   25.9720 C   0  0  1  0  0  0  0  0  0  0  0  0
    4.4880    0.0730   26.3020 F   0  0  0  0  0  0  0  0  0  0  0  0
    5.6030   -1.2230   25.0290 F   0  0  0  0  0  0  0  0  0  0  0  0
    6.4990   -0.7730   27.1600 C   0  0  2  0  0  0  0  0  0  0  0  0
    6.9830    0.2750   28.1170 C   0  0  0  0  0  0  0  0  0  0  0  0
    7.9490   -0.6990   27.5200 C   0  0  2  0  0  0  0  0  0  0  0  0
    9.1650   -0.1920   26.9020 N   0  0  0  0  0  0  0  0  0  0  0  0
    9.7040   -0.2730   25.6210 C   0  0  0  0  0  0  0  0  0  0  0  0
   10.9970    0.2080   25.4230 C   0  0  0  0  0  0  0  0  0  0  0  0
   11.5890    0.0330   24.1870 C   0  0  1  0  0  0  0  0  0  0  0  0
   13.3100    0.2910   24.0350 Cl  0  0  0  0  0  0  0  0  0  0  0  0
   10.8970   -0.5070   23.1190 C   0  0  0  0  0  0  0  0  0  0  0  0
    9.0060   -0.8370   24.5560 C   0  0  0  0  0  0  0  0  0  0  0  0
    9.5920   -0.9520   23.3000 C   0  0  2  0  0  0  0  0  0  0  0  0
    8.8450   -1.6160   22.1640 C   0  0  0  0  0  0  0  0  0  0  0  0
    8.1510   -0.6150   21.2620 C   0  0  0  0  0  0  0  0  0  0  0  0
    8.6290    0.4870   21.0360 O   0  0  0  0  0  0  0  0  0  0  0  0
    6.9880   -1.0420   20.7350 N   0  0  0  0  0  0  0  0  0  0  0  0
    6.2670   -0.3330   19.7510 C   0  0  1  0  0  0  0  0  0  0  0  0
    5.0870    0.3510   20.0950 C   0  0  1  0  0  0  0  0  0  0  0  0
    4.5470    0.3560   21.5040 C   0  0  0  0  0  0  0  0  0  0  0  0
    6.7490   -0.2230   18.4490 C   0  0  0  0  0  0  0  0  0  0  0  0
    6.1540    0.5110   17.5030 N   0  0  0  0  0  0  0  0  0  0  0  0
    5.0240    1.1440   17.8370 C   0  0  0  0  0  0  0  0  0  0  0  0
    4.4630    1.0900   19.0950 C   0  0  0  0  0  0  0  0  0  0  0  0
  2  1  1  6
  3  2  1  0
  4  2  1  0
  5  2  1  0
  5  6  1  1
  7  5  1  0
  7  6  1  0
  7  8  1  6
  9  8  1  0
 10  9  1  0
 11 10  1  0
 11 12  1  1
 13 11  1  0
 14  9  1  0
 15 14  1  0
 15 13  1  0
 15 16  1  1
 17 16  1  0
 18 17  1  0
 19 17  1  0
 20 19  1  1
 21 20  1  0
 21 22  1  1
 23 20  1  0
 24 23  1  0
 25 24  1  0
 26 25  1  0
 26 21  1  0
M  END
$$$$

     RDKit          3D

 21 23  0  0  0  0  0  0  0  0999 V2000
    6.5590    1.1670   16.9420 O   0  0  0  0  0  0  0  0  0  0  0  0
    6.0840    0.9080   18.0420 C   0  0  0  0  0  0  0  0  0  0  0  0
    4.9150    1.4100   18.4350 N   0  0  0  0  0  0  0  0  0  0  0  0
    4.4630    1.6250   19.8260 C   0  0  0  0  0  0  0  0  0  0  0  0
    5.1970    0.6970   20.7820 C   0  0  0  0  0  0  0  0  0  0  0  0
    6.8370    0.0540   19.0190 C   0  0  0  0  0  0  0  0  0  0  0  0
    6.6720    0.6260   20.4260 C   0  0  2  0  0  0  0  0  0  0  0  0
    7.4360   -0.1420   21.4060 N   0  0  0  0  0  0  0  0  0  0  0  0
    8.6680    0.2120   21.7820 C   0  0  0  0  0  0  0  0  0  0  0  0
    9.2940    1.1100   21.2250 O   0  0  0  0  0  0  0  0  0  0  0  0
    9.2170   -0.5370   22.9990 C   0  0  2  0  0  0  0  0  0  0  0  0
    8.5560    0.0040   24.2790 C   0  0  0  0  0  0  0  0  0  0  0  0
    9.1420    1.3450   24.6340 C   0  0  0  0  0  0  0  0  0  0  0  0
   10.5590    1.2480   24.8780 O   0  0  0  0  0  0  0  0  0  0  0  0
   10.7200   -0.3410   23.0350 C   0  0  0  0  0  0  0  0  0  0  0  0
   11.5720   -1.0330   22.1720 C   0  0  0  0  0  0  0  0  0  0  0  0
   12.9280   -0.7700   22.1910 C   0  0  0  0  0  0  0  0  0  0  0  0
   13.9750   -1.6450   21.1130 Cl  0  0  0  0  0  0  0  0  0  0  0  0
   11.2840    0.5920   23.9120 C   0  0  2  0  0  0  0  0  0  0  0  0
   12.6440    0.8560   23.9060 C   0  0  0  0  0  0  0  0  0  0  0  0
   13.4720    0.1690   23.0390 C   0  0  0  0  0  0  0  0  0  0  0  0
  2  1  1  0
  3  2  1  0
  4  3  1  0
  5  4  1  0
  6  2  1  0
  7  5  1  0
  7  6  1  0
  7  8  1  1
  9  8  1  0
 10  9  1  0
 11  9  1  6
 12 11  1  0
 13 12  1  0
 14 13  1  0
 15 11  1  0
 16 15  1  0
 17 16  1  0
 18 17  1  0
 19 15  1  0
 19 14  1  0
 19 20  1  1
 21 20  1  0
 21 17  1  0
M  END
$$$$

     RDKit          3D

 22 24  0  0  0  0  0  0  0  0999 V2000
    9.5680    1.0210   21.1030 O   0  0  0  0  0  0  0  0  0  0  0  0
    9.2840   -0.1500   21.3370 C   0  0  0  0  0  0  0  0  0  0  0  0
    8.1850   -0.7760   20.8550 N   0  0  0  0  0  0  0  0  0  0  0  0
    7.2370   -0.2040   19.9740 C   0  0  0  0  0  0  0  0  0  0  0  0
    6.0400    0.3280   20.4710 C   0  0  0  0  0  0  0  0  0  0  0  0
    5.6490    0.2180   21.9370 C   0  0  2  0  0  0  0  0  0  0  0  0
    4.6350    1.1530   22.5260 C   0  0  0  0  0  0  0  0  0  0  0  0
    6.0500    1.2590   22.9430 C   0  0  0  0  0  0  0  0  0  0  0  0
    5.1780    0.9470   19.5710 C   0  0  0  0  0  0  0  0  0  0  0  0
    5.5200    0.9920   18.2350 C   0  0  0  0  0  0  0  0  0  0  0  0
    6.6510    0.4830   17.7420 N   0  0  0  0  0  0  0  0  0  0  0  0
    7.4880   -0.1040   18.6050 C   0  0  0  0  0  0  0  0  0  0  0  0
   10.1740   -1.0210   22.2060 C   0  0  0  0  0  0  0  0  0  0  0  0
    9.4200   -1.8850   23.1070 N   0  0  0  0  0  0  0  0  0  0  0  0
    8.6560   -1.1020   24.0830 C   0  0  0  0  0  0  0  0  0  0  0  0
    7.7480   -2.0170   24.8770 C   0  0  0  0  0  0  0  0  0  0  0  0
   10.2960   -2.8190   23.8210 C   0  0  0  0  0  0  0  0  0  0  0  0
    9.4630   -3.7990   24.6370 C   0  0  0  0  0  0  0  0  0  0  0  0
    8.5370   -3.0750   25.5230 N   0  0  0  0  0  0  0  0  0  0  0  0
    8.3520   -3.3240   26.8390 C   0  0  0  0  0  0  0  0  0  0  0  0
    7.9900   -2.4340   27.5950 O   0  0  0  0  0  0  0  0  0  0  0  0
    8.5420   -4.7300   27.3250 C   0  0  0  0  0  0  0  0  0  0  0  0
  2  1  1  0
  3  2  1  0
  4  3  1  0
  5  4  1  0
  6  5  1  6
  7  6  1  0
  8  7  1  0
  8  6  1  0
  9  5  1  0
 10  9  1  0
 11 10  1  0
 12 11  1  0
 12  4  1  0
 13  2  1  0
 14 13  1  0
 15 14  1  0
 16 15  1  0
 17 14  1  0
 18 17  1  0
 19 18  1  0
 19 16  1  0
 20 19  1  0
 21 20  1  0
 22 20  1  0
M  END
$$$$

     RDKit          3D

 18 19  0  0  0  0  0  0  0  0999 V2000
    8.9660    0.5410   20.7820 O   0  0  0  0  0  0  0  0  0  0  0  0
    8.1820   -0.1750   21.4000 C   0  0  0  0  0  0  0  0  0  0  0  0
    8.5540   -0.7590   22.7520 C   0  0  0  0  0  0  0  0  0  0  0  0
    9.9860   -0.6590   23.0030 N   0  0  0  0  0  0  0  0  0  0  0  0
   10.2890   -0.8310   24.4410 C   0  0  0  0  0  0  0  0  0  0  0  0
   11.7910   -0.7140   24.7080 C   0  0  0  0  0  0  0  0  0  0  0  0
   10.7180   -1.6540   22.1960 C   0  0  0  0  0  0  0  0  0  0  0  0
   12.2200   -1.5410   22.4080 C   0  0  0  0  0  0  0  0  0  0  0  0
   12.5840   -1.7060   23.8720 C   0  0  1  0  0  0  0  0  0  0  0  0
   14.0770   -1.5990   24.1080 C   0  0  0  0  0  0  0  0  0  0  0  0
    6.9380   -0.4820   20.9760 N   0  0  0  0  0  0  0  0  0  0  0  0
    6.3090    0.1020   19.8510 C   0  0  1  0  0  0  0  0  0  0  0  0
    5.1470    0.8650   20.0330 C   0  0  0  0  0  0  0  0  0  0  0  0
    4.5070    1.0340   21.3880 C   0  0  0  0  0  0  0  0  0  0  0  0
    4.6140    1.4950   18.9120 C   0  0  0  0  0  0  0  0  0  0  0  0
    5.2390    1.3510   17.6850 C   0  0  0  0  0  0  0  0  0  0  0  0
    6.3450    0.6210   17.4970 N   0  0  0  0  0  0  0  0  0  0  0  0
    6.8620    0.0090   18.5680 C   0  0  0  0  0  0  0  0  0  0  0  0
  2  1  1  0
  3  2  1  0
  4  3  1  0
  5  4  1  0
  6  5  1  0
  7  4  1  0
  8  7  1  0
  9  8  1  0
  9  6  1  0
  9 10  1  6
 11  2  1  0
 12 11  1  1
 13 12  1  0
 14 13  1  0
 15 13  1  0
 16 15  1  0
 17 16  1  0
 18 17  1  0
 18 12  1  0
M  END
$$$$

     RDKit          3D

 16 17  0  0  0  0  0  0  0  0999 V2000
    8.5370    2.2820   22.7830 O   0  0  0  0  0  0  0  0  0  0  0  0
    9.8420    1.7080   22.6070 S   0  0  1  0  0  0  0  0  0  0  0  0
   10.3800    1.6460   21.2780 O   0  0  0  0  0  0  0  0  0  0  0  0
   10.9740    2.5740   23.6280 C   0  0  0  0  0  0  0  0  0  0  0  0
    9.8190    0.0680   23.2690 C   0  0  1  0  0  0  0  0  0  0  0  0
    9.5760   -0.1150   24.6190 C   0  0  0  0  0  0  0  0  0  0  0  0
    9.4170   -1.3950   25.1140 C   0  0  0  0  0  0  0  0  0  0  0  0
    9.5120   -2.5020   24.2770 C   0  0  0  0  0  0  0  0  0  0  0  0
    9.8000   -2.2970   22.9260 C   0  0  0  0  0  0  0  0  0  0  0  0
    9.9550   -1.0190   22.4210 C   0  0  0  0  0  0  0  0  0  0  0  0
    9.2780   -3.7900   24.7740 N   0  0  0  0  0  0  0  0  0  0  0  0
    8.9640   -3.9890   26.1960 C   0  0  0  0  0  0  0  0  0  0  0  0
    8.2550   -5.3130   26.4070 C   0  0  0  0  0  0  0  0  0  0  0  0
    9.0360   -6.4180   25.8100 N   0  0  0  0  0  0  0  0  0  0  0  0
    9.2990   -6.1820   24.3790 C   0  0  0  0  0  0  0  0  0  0  0  0
   10.0660   -4.8930   24.2180 C   0  0  0  0  0  0  0  0  0  0  0  0
  2  1  1  0
  3  2  1  0
  2  4  1  1
  5  2  1  0
  5  6  1  6
  7  6  1  0
  8  7  1  0
  9  8  1  0
 10  9  1  0
 10  5  1  0
 11  8  1  0
 12 11  1  0
 13 12  1  0
 14 13  1  0
 15 14  1  0
 16 15  1  0
 16 11  1  0
M  END
$$$$

     RDKit          3D

 22 24  0  0  0  0  0  0  0  0999 V2000
   13.8630    6.9370   22.5470 O   0  0  0  0  0  0  0  0  0  0  0  0
   13.6020    5.7580   22.7620 C   0  0  2  0  0  0  0  0  0  0  0  0
   14.1540    4.6730   23.6720 C   0  0  0  0  0  0  0  0  0  0  0  0
   12.7340    4.9100   22.1810 N   0  0  0  0  0  0  0  0  0  0  0  0
   13.4130    3.7060   22.7360 C   0  0  2  0  0  0  0  0  0  0  0  0
   12.4940    2.9090   23.5280 O   0  0  0  0  0  0  0  0  0  0  0  0
   12.3480    1.6250   23.0510 C   0  0  0  0  0  0  0  0  0  0  0  0
   13.3940    0.7300   23.1960 C   0  0  0  0  0  0  0  0  0  0  0  0
   13.2350   -0.5740   22.7550 C   0  0  0  0  0  0  0  0  0  0  0  0
   12.0430   -0.9830   22.1780 C   0  0  0  0  0  0  0  0  0  0  0  0
   11.1560    1.2400   22.4540 C   0  0  0  0  0  0  0  0  0  0  0  0
   11.0060   -0.0720   22.0100 C   0  0  0  0  0  0  0  0  0  0  0  0
    9.8190   -0.5430   21.4030 N   0  0  0  0  0  0  0  0  0  0  0  0
    8.7010    0.1480   21.0920 C   0  0  0  0  0  0  0  0  0  0  0  0
    8.6540    1.3710   20.9980 O   0  0  0  0  0  0  0  0  0  0  0  0
    7.4810   -0.7180   20.8550 C   0  0  0  0  0  0  0  0  0  0  0  0
    6.5690   -0.1770   19.7790 C   0  0  2  0  0  0  0  0  0  0  0  0
    6.9710   -0.1410   18.4540 C   0  0  0  0  0  0  0  0  0  0  0  0
    6.3790    0.6130   17.5220 N   0  0  0  0  0  0  0  0  0  0  0  0
    5.3560    1.3540   17.9480 C   0  0  0  0  0  0  0  0  0  0  0  0
    4.8830    1.4270   19.1940 N   0  0  0  0  0  0  0  0  0  0  0  0
    5.5090    0.6570   20.0910 C   0  0  0  0  0  0  0  0  0  0  0  0
  2  1  1  6
  3  2  1  0
  4  2  1  0
  5  4  1  0
  5  3  1  0
  5  6  1  1
  7  6  1  0
  8  7  1  0
  9  8  1  0
 10  9  1  0
 11  7  1  0
 12 11  1  0
 12 10  1  0
 13 12  1  0
 14 13  1  0
 15 14  1  0
 16 14  1  0
 17 16  1  1
 18 17  1  0
 19 18  1  0
 20 19  1  0
 21 20  1  0
 22 21  1  0
 22 17  1  0
M  END
$$$$

     RDKit          3D

 18 19  0  0  0  0  0  0  0  0999 V2000
   14.3990   -1.9780   20.5260 N   0  0  0  0  0  0  0  0  0  0  0  0
   13.6900   -1.4980   21.2810 C   0  0  0  0  0  0  0  0  0  0  0  0
   12.7640   -0.9010   22.2100 C   0  0  0  0  0  0  0  0  0  0  0  0
   13.1990   -0.1020   23.2680 C   0  0  0  0  0  0  0  0  0  0  0  0
   12.3660    0.4740   24.1430 N   0  0  0  0  0  0  0  0  0  0  0  0
   11.0520    0.2600   23.9740 C   0  0  0  0  0  0  0  0  0  0  0  0
   11.3960   -1.1080   22.0640 C   0  0  0  0  0  0  0  0  0  0  0  0
   10.5110   -0.5150   22.9590 C   0  0  0  0  0  0  0  0  0  0  0  0
    9.0180   -0.6630   22.7930 C   0  0  0  0  0  0  0  0  0  0  0  0
    8.5600    0.1200   21.5780 C   0  0  2  0  0  0  0  0  0  0  0  0
    9.3220    0.8720   20.9710 O   0  0  0  0  0  0  0  0  0  0  0  0
    7.2540   -0.0210   21.2740 N   0  0  0  0  0  0  0  0  0  0  0  0
    6.6290    0.1920   20.0280 C   0  0  2  0  0  0  0  0  0  0  0  0
    7.2980    0.1370   18.8040 C   0  0  0  0  0  0  0  0  0  0  0  0
    6.7950    0.6270   17.6640 N   0  0  0  0  0  0  0  0  0  0  0  0
    5.5920    1.2100   17.7230 C   0  0  0  0  0  0  0  0  0  0  0  0
    4.8500    1.3120   18.8860 C   0  0  0  0  0  0  0  0  0  0  0  0
    5.3700    0.7760   20.0500 C   0  0  0  0  0  0  0  0  0  0  0  0
  2  1  1  0
  3  2  1  0
  4  3  1  0
  5  4  1  0
  6  5  1  0
  7  3  1  0
  8  7  1  0
  8  6  1  0
  9  8  1  0
 10  9  1  0
 10 11  1  1
 12 10  1  0
 13 12  1  1
 14 13  1  0
 15 14  1  0
 16 15  1  0
 17 16  1  0
 18 17  1  0
 18 13  1  0
M  END
$$$$

     RDKit          3D

 19 20  0  0  0  0  0  0  0  0999 V2000
   14.4380   -1.9770   20.5430 N   0  0  0  0  0  0  0  0  0  0  0  0
   13.7200   -1.4490   21.2590 C   0  0  0  0  0  0  0  0  0  0  0  0
   12.8030   -0.8190   22.1720 C   0  0  0  0  0  0  0  0  0  0  0  0
   13.2800    0.0200   23.1770 C   0  0  0  0  0  0  0  0  0  0  0  0
   12.3940    0.5780   24.0830 C   0  0  0  0  0  0  0  0  0  0  0  0
   11.0380    0.3170   23.9790 C   0  0  0  0  0  0  0  0  0  0  0  0
   11.4370   -1.0770   22.0680 C   0  0  0  0  0  0  0  0  0  0  0  0
   10.5450   -0.5020   22.9700 C   0  0  0  0  0  0  0  0  0  0  0  0
    9.0590   -0.7300   22.8160 C   0  0  0  0  0  0  0  0  0  0  0  0
    8.5540    0.0500   21.6190 C   0  0  0  0  0  0  0  0  0  0  0  0
    9.1900    0.9860   21.1420 O   0  0  0  0  0  0  0  0  0  0  0  0
    7.3920   -0.3970   21.1110 N   0  0  0  0  0  0  0  0  0  0  0  0
    6.7360    0.1530   19.9930 C   0  0  0  0  0  0  0  0  0  0  0  0
    5.5270    0.8410   20.1730 C   0  0  0  0  0  0  0  0  0  0  0  0
    4.9240    1.0470   21.5400 C   0  0  0  0  0  0  0  0  0  0  0  0
    7.2600    0.0360   18.7030 C   0  0  0  0  0  0  0  0  0  0  0  0
    6.6650    0.5520   17.6210 N   0  0  0  0  0  0  0  0  0  0  0  0
    5.5080    1.1970   17.8030 C   0  0  0  0  0  0  0  0  0  0  0  0
    4.9160    1.3670   19.0390 C   0  0  0  0  0  0  0  0  0  0  0  0
  2  1  1  0
  3  2  1  0
  4  3  1  0
  5  4  1  0
  6  5  1  0
  7  3  1  0
  8  7  1  0
  8  6  1  0
  9  8  1  0
 10  9  1  0
 11 10  1  0
 12 10  1  0
 13 12  1  0
 14 13  1  0
 15 14  1  0
 16 13  1  0
 17 16  1  0
 18 17  1  0
 19 18  1  0
 19 14  1  0
M  END
$$$$

     RDKit          3D

 22 24  0  0  0  0  0  0  0  0999 V2000
   11.4780    3.4010   24.4110 O   0  0  0  0  0  0  0  0  0  0  0  0
   11.4780    3.8120   23.2620 C   0  0  0  0  0  0  0  0  0  0  0  0
   10.9040    3.1620   22.2280 N   0  0  0  0  0  0  0  0  0  0  0  0
   10.3810    1.8640   22.1780 C   0  0  1  0  0  0  0  0  0  0  0  0
    9.6900    1.6120   21.0540 N   0  0  0  0  0  0  0  0  0  0  0  0
    9.2450    0.3610   20.8690 C   0  0  0  0  0  0  0  0  0  0  0  0
    9.4490   -0.6730   21.7650 C   0  0  0  0  0  0  0  0  0  0  0  0
   10.6180    0.8970   23.1630 C   0  0  0  0  0  0  0  0  0  0  0  0
   10.1360   -0.3830   22.9350 C   0  0  0  0  0  0  0  0  0  0  0  0
   10.3760   -1.2380   23.9800 O   0  0  0  0  0  0  0  0  0  0  0  0
    9.9180   -2.5880   23.8740 C   0  0  0  0  0  0  0  0  0  0  0  0
   12.1440    5.1210   22.8930 C   0  0  0  0  0  0  0  0  0  0  0  0
   11.3660    6.3190   23.3880 C   0  0  0  0  0  0  0  0  0  0  0  0
   11.7370    6.9750   24.5360 C   0  0  0  0  0  0  0  0  0  0  0  0
   11.0470    8.1270   24.9820 C   0  0  0  0  0  0  0  0  0  0  0  0
    9.9510    8.6020   24.2200 C   0  0  0  0  0  0  0  0  0  0  0  0
    9.5830    7.8920   23.0550 C   0  0  0  0  0  0  0  0  0  0  0  0
   10.2760    6.7860   22.6630 C   0  0  0  0  0  0  0  0  0  0  0  0
   11.4160    8.8270   26.1590 C   0  0  0  0  0  0  0  0  0  0  0  0
   10.7380    9.9500   26.5390 C   0  0  0  0  0  0  0  0  0  0  0  0
    9.6700   10.4190   25.7890 C   0  0  0  0  0  0  0  0  0  0  0  0
    9.2750    9.7680   24.6540 C   0  0  0  0  0  0  0  0  0  0  0  0
  2  1  1  0
  3  2  1  0
  4  3  1  6
  5  4  1  0
  6  5  1  0
  7  6  1  0
  8  4  1  0
  9  7  1  0
  9  8  1  0
 10  9  1  0
 11 10  1  0
 12  2  1  0
 13 12  1  0
 14 13  1  0
 15 14  1  0
 16 15  1  0
 17 16  1  0
 18 17  1  0
 18 13  1  0
 19 15  1  0
 20 19  1  0
 21 20  1  0
 22 21  1  0
 22 16  1  0
M  END
$$$$

     RDKit          3D

 18 19  0  0  0  0  0  0  0  0999 V2000
   14.4550   -1.8900   20.5250 N   0  0  0  0  0  0  0  0  0  0  0  0
   13.7190   -1.4490   21.2790 C   0  0  0  0  0  0  0  0  0  0  0  0
   12.8220   -0.8860   22.2560 C   0  0  0  0  0  0  0  0  0  0  0  0
   13.3240   -0.1480   23.3250 C   0  0  0  0  0  0  0  0  0  0  0  0
   12.4500    0.4340   24.2280 C   0  0  0  0  0  0  0  0  0  0  0  0
   11.0820    0.2780   24.0680 C   0  0  0  0  0  0  0  0  0  0  0  0
   11.4470   -1.0480   22.1030 C   0  0  0  0  0  0  0  0  0  0  0  0
   10.5670   -0.4600   23.0080 C   0  0  0  0  0  0  0  0  0  0  0  0
    9.0760   -0.6020   22.8160 C   0  0  0  0  0  0  0  0  0  0  0  0
    8.5910    0.1040   21.5650 C   0  0  0  0  0  0  0  0  0  0  0  0
    9.1990    1.0530   21.0700 O   0  0  0  0  0  0  0  0  0  0  0  0
    7.4380   -0.3870   21.0640 N   0  0  0  0  0  0  0  0  0  0  0  0
    6.7110    0.1240   19.9710 C   0  0  2  0  0  0  0  0  0  0  0  0
    7.1920   -0.0010   18.6680 C   0  0  0  0  0  0  0  0  0  0  0  0
    6.6050    0.5650   17.6070 N   0  0  0  0  0  0  0  0  0  0  0  0
    5.4900    1.2730   17.8240 C   0  0  0  0  0  0  0  0  0  0  0  0
    4.9250    1.4450   19.0770 C   0  0  0  0  0  0  0  0  0  0  0  0
    5.5460    0.8570   20.1650 C   0  0  0  0  0  0  0  0  0  0  0  0
  2  1  1  0
  3  2  1  0
  4  3  1  0
  5  4  1  0
  6  5  1  0
  7  3  1  0
  8  7  1  0
  8  6  1  0
  9  8  1  0
 10  9  1  0
 11 10  1  0
 12 10  1  0
 13 12  1  1
 14 13  1  0
 15 14  1  0
 16 15  1  0
 17 16  1  0
 18 17  1  0
 18 13  1  0
M  END
$$$$

     RDKit          3D

 16 17  0  0  0  0  0  0  0  0999 V2000
    8.8800    0.8730   20.7130 O   0  0  0  0  0  0  0  0  0  0  0  0
    8.4470   -0.1940   21.1400 C   0  0  0  0  0  0  0  0  0  0  0  0
    9.1390   -0.9250   22.0930 N   0  0  0  0  0  0  0  0  0  0  0  0
   10.3550   -0.4610   22.5860 C   0  0  1  0  0  0  0  0  0  0  0  0
   11.2640   -1.1950   23.2880 C   0  0  0  0  0  0  0  0  0  0  0  0
   12.4420   -0.4690   23.5700 C   0  0  0  0  0  0  0  0  0  0  0  0
   10.9400    1.1410   22.2960 S   0  0  0  0  0  0  0  0  0  0  0  0
   12.4340    0.8040   23.0890 C   0  0  2  0  0  0  0  0  0  0  0  0
   13.5210    1.8270   23.1200 C   0  0  0  0  0  0  0  0  0  0  0  0
    7.2610   -0.7270   20.7360 N   0  0  0  0  0  0  0  0  0  0  0  0
    6.3830   -0.0970   19.8310 C   0  0  2  0  0  0  0  0  0  0  0  0
    6.7070   -0.0030   18.4780 C   0  0  0  0  0  0  0  0  0  0  0  0
    5.9960    0.7150   17.6010 N   0  0  0  0  0  0  0  0  0  0  0  0
    4.9290    1.3760   18.0660 C   0  0  0  0  0  0  0  0  0  0  0  0
    4.5170    1.3320   19.3840 C   0  0  0  0  0  0  0  0  0  0  0  0
    5.2520    0.5740   20.2780 C   0  0  0  0  0  0  0  0  0  0  0  0
  2  1  1  0
  3  2  1  0
  4  3  1  6
  5  4  1  0
  6  5  1  0
  7  4  1  0
  8  7  1  0
  8  6  1  0
  8  9  1  6
 10  2  1  0
 11 10  1  1
 12 11  1  0
 13 12  1  0
 14 13  1  0
 15 14  1  0
 16 15  1  0
 16 11  1  0
M  END
$$$$

     RDKit          3D

 16 17  0  0  0  0  0  0  0  0999 V2000
    9.1080    0.5440   21.0920 O   0  0  0  0  0  0  0  0  0  0  0  0
    8.4280   -0.4490   21.3510 C   0  0  0  0  0  0  0  0  0  0  0  0
    8.8260   -1.4140   22.4460 C   0  0  0  0  0  0  0  0  0  0  0  0
   10.0060   -0.7650   23.1060 C   0  0  0  0  0  0  0  0  0  0  0  0
   10.0050   -0.0300   24.2720 C   0  0  0  0  0  0  0  0  0  0  0  0
   11.2620    0.4910   24.6070 C   0  0  0  0  0  0  0  0  0  0  0  0
   11.5930   -0.8300   22.4250 S   0  0  0  0  0  0  0  0  0  0  0  0
   12.2030    0.1370   23.7030 C   0  0  0  0  0  0  0  0  0  0  0  0
   13.8680    0.5450   23.7400 Cl  0  0  0  0  0  0  0  0  0  0  0  0
    7.2780   -0.7580   20.7130 N   0  0  0  0  0  0  0  0  0  0  0  0
    6.6350   -0.0180   19.6980 C   0  0  0  0  0  0  0  0  0  0  0  0
    7.2210    0.1430   18.4430 C   0  0  0  0  0  0  0  0  0  0  0  0
    6.6390    0.8050   17.4370 N   0  0  0  0  0  0  0  0  0  0  0  0
    5.4370    1.3460   17.6650 C   0  0  0  0  0  0  0  0  0  0  0  0
    4.7780    1.2560   18.8770 C   0  0  0  0  0  0  0  0  0  0  0  0
    5.3860    0.5570   19.9070 C   0  0  0  0  0  0  0  0  0  0  0  0
  2  1  1  0
  3  2  1  0
  4  3  1  0
  5  4  1  0
  6  5  1  0
  7  4  1  0
  8  7  1  0
  8  6  1  0
  9  8  1  0
 10  2  1  0
 11 10  1  0
 12 11  1  0
 13 12  1  0
 14 13  1  0
 15 14  1  0
 16 15  1  0
 16 11  1  0
M  END
$$$$

     RDKit          3D

 18 19  0  0  0  0  0  0  0  0999 V2000
   13.8410   -1.7990   21.2570 Cl  0  0  0  0  0  0  0  0  0  0  0  0
   12.6700   -1.0110   22.2800 C   0  0  0  0  0  0  0  0  0  0  0  0
   13.1010   -0.1180   23.2430 C   0  0  0  0  0  0  0  0  0  0  0  0
   12.1640    0.4300   24.1100 C   0  0  0  0  0  0  0  0  0  0  0  0
   10.8230    0.1060   23.9840 C   0  0  0  0  0  0  0  0  0  0  0  0
   11.3310   -1.3240   22.1280 C   0  0  0  0  0  0  0  0  0  0  0  0
   10.3890   -0.7480   22.9790 C   0  0  2  0  0  0  0  0  0  0  0  0
    8.9160   -0.9580   22.7250 C   0  0  0  0  0  0  0  0  0  0  0  0
    8.4560   -0.1670   21.5150 C   0  0  0  0  0  0  0  0  0  0  0  0
    9.0860    0.7960   21.0880 O   0  0  0  0  0  0  0  0  0  0  0  0
    7.2950   -0.5890   20.9790 N   0  0  0  0  0  0  0  0  0  0  0  0
    6.6300    0.0340   19.9040 C   0  0  1  0  0  0  0  0  0  0  0  0
    5.4900    0.8230   20.1420 C   0  0  0  0  0  0  0  0  0  0  0  0
    4.8590    0.9320   21.5050 C   0  0  0  0  0  0  0  0  0  0  0  0
    7.1440   -0.0390   18.6110 C   0  0  0  0  0  0  0  0  0  0  0  0
    6.6190    0.6260   17.5760 N   0  0  0  0  0  0  0  0  0  0  0  0
    5.5390    1.3800   17.8130 C   0  0  0  0  0  0  0  0  0  0  0  0
    4.9520    1.5070   19.0560 C   0  0  0  0  0  0  0  0  0  0  0  0
  2  1  1  0
  3  2  1  0
  4  3  1  0
  5  4  1  0
  6  2  1  0
  7  5  1  0
  7  6  1  0
  7  8  1  6
  9  8  1  0
 10  9  1  0
 11  9  1  0
 12 11  1  1
 13 12  1  0
 14 13  1  0
 15 12  1  0
 16 15  1  0
 17 16  1  0
 18 17  1  0
 18 13  1  0
M  END
$$$$

     RDKit          3D

 19 20  0  0  0  0  0  0  0  0999 V2000
   13.8470   -1.8410   21.2210 Cl  0  0  0  0  0  0  0  0  0  0  0  0
   12.6310   -1.0990   22.2200 C   0  0  0  0  0  0  0  0  0  0  0  0
   13.0040   -0.1450   23.1470 C   0  0  0  0  0  0  0  0  0  0  0  0
   12.0340    0.3740   23.9950 C   0  0  0  0  0  0  0  0  0  0  0  0
   10.7120   -0.0220   23.8700 C   0  0  0  0  0  0  0  0  0  0  0  0
   11.3180   -1.5030   22.0840 C   0  0  0  0  0  0  0  0  0  0  0  0
   10.3380   -0.9390   22.8930 C   0  0  2  0  0  0  0  0  0  0  0  0
    8.8710   -1.2470   22.6160 C   0  0  1  0  0  0  0  0  0  0  0  0
    7.9970   -1.1750   23.8710 C   0  0  0  0  0  0  0  0  0  0  0  0
    8.4150   -0.3170   21.4870 C   0  0  0  0  0  0  0  0  0  0  0  0
    9.0580    0.6840   21.1770 O   0  0  0  0  0  0  0  0  0  0  0  0
    7.2580   -0.6730   20.8820 N   0  0  0  0  0  0  0  0  0  0  0  0
    6.6270    0.0620   19.8650 C   0  0  0  0  0  0  0  0  0  0  0  0
    5.4760    0.8150   20.1520 C   0  0  1  0  0  0  0  0  0  0  0  0
    4.9710    1.0010   21.5590 C   0  0  0  0  0  0  0  0  0  0  0  0
    4.8600    1.4620   19.0880 C   0  0  0  0  0  0  0  0  0  0  0  0
    5.4100    1.3680   17.8230 C   0  0  0  0  0  0  0  0  0  0  0  0
    6.5250    0.6820   17.5480 N   0  0  0  0  0  0  0  0  0  0  0  0
    7.1140    0.0360   18.5590 C   0  0  0  0  0  0  0  0  0  0  0  0
  2  1  1  0
  3  2  1  0
  4  3  1  0
  5  4  1  0
  6  2  1  0
  7  5  1  6
  7  6  1  0
  8  7  1  0
  8  9  1  1
 10  8  1  0
 11 10  1  0
 12 10  1  0
 13 12  1  0
 14 13  1  0
 14 15  1  1
 16 14  1  0
 17 16  1  0
 18 17  1  0
 19 18  1  0
 19 13  1  0
M  END
$$$$

     RDKit          3D

 18 19  0  0  0  0  0  0  0  0999 V2000
   14.0330   -1.6570   21.4790 Cl  0  0  0  0  0  0  0  0  0  0  0  0
   12.7480   -0.8870   22.3660 C   0  0  0  0  0  0  0  0  0  0  0  0
   13.0570    0.0960   23.2870 C   0  0  0  0  0  0  0  0  0  0  0  0
   12.0240    0.7090   23.9820 C   0  0  0  0  0  0  0  0  0  0  0  0
   10.7060    0.3570   23.7360 C   0  0  0  0  0  0  0  0  0  0  0  0
   11.4470   -1.2670   22.1130 C   0  0  0  0  0  0  0  0  0  0  0  0
   10.4170   -0.6190   22.7860 C   0  0  2  0  0  0  0  0  0  0  0  0
    9.1100   -0.8310   22.3010 N   0  0  0  0  0  0  0  0  0  0  0  0
    8.5740   -0.1020   21.2770 C   0  0  0  0  0  0  0  0  0  0  0  0
    9.1180    0.8940   20.8200 O   0  0  0  0  0  0  0  0  0  0  0  0
    7.3850   -0.5870   20.8140 N   0  0  0  0  0  0  0  0  0  0  0  0
    6.6890    0.0420   19.7590 C   0  0  0  0  0  0  0  0  0  0  0  0
    5.5170    0.7730   20.0290 C   0  0  1  0  0  0  0  0  0  0  0  0
    5.0210    0.9980   21.4350 C   0  0  0  0  0  0  0  0  0  0  0  0
    7.1570   -0.0200   18.4460 C   0  0  0  0  0  0  0  0  0  0  0  0
    6.5400    0.5750   17.4190 N   0  0  0  0  0  0  0  0  0  0  0  0
    5.4130    1.2500   17.6840 C   0  0  0  0  0  0  0  0  0  0  0  0
    4.8740    1.3680   18.9500 C   0  0  0  0  0  0  0  0  0  0  0  0
  2  1  1  0
  3  2  1  0
  4  3  1  0
  5  4  1  0
  6  2  1  0
  7  5  1  0
  7  6  1  0
  7  8  1  6
  9  8  1  0
 10  9  1  0
 11  9  1  0
 12 11  1  0
 13 12  1  0
 13 14  1  1
 15 12  1  0
 16 15  1  0
 17 16  1  0
 18 17  1  0
 18 13  1  0
M  END
$$$$

     RDKit          3D

 20 21  0  0  0  0  0  0  0  0999 V2000
   14.3360   -1.9000   20.4280 N   0  0  0  0  0  0  0  0  0  0  0  0
   13.6320   -1.4840   21.2260 C   0  0  0  0  0  0  0  0  0  0  0  0
   12.7050   -0.9780   22.2070 C   0  0  1  0  0  0  0  0  0  0  0  0
   13.1380   -0.0980   23.1970 C   0  0  0  0  0  0  0  0  0  0  0  0
   12.2190    0.4500   24.0790 C   0  0  0  0  0  0  0  0  0  0  0  0
   10.8700    0.1510   23.9530 C   0  0  0  0  0  0  0  0  0  0  0  0
   11.3550   -1.3060   22.1090 C   0  0  0  0  0  0  0  0  0  0  0  0
   10.4250   -0.7280   22.9680 C   0  0  0  0  0  0  0  0  0  0  0  0
    8.9450   -1.0460   22.7910 C   0  0  1  0  0  0  0  0  0  0  0  0
    8.1230   -0.8420   24.0700 C   0  0  0  0  0  0  0  0  0  0  0  0
    8.4610   -0.2040   21.6070 C   0  0  0  0  0  0  0  0  0  0  0  0
    9.1110    0.7450   21.1790 O   0  0  0  0  0  0  0  0  0  0  0  0
    7.2790   -0.5770   21.0790 N   0  0  0  0  0  0  0  0  0  0  0  0
    6.6630    0.0980   20.0110 C   0  0  2  0  0  0  0  0  0  0  0  0
    5.5040    0.8580   20.2350 C   0  0  1  0  0  0  0  0  0  0  0  0
    4.9940    1.1530   21.6240 C   0  0  0  0  0  0  0  0  0  0  0  0
    4.8660    1.3820   19.1210 C   0  0  0  0  0  0  0  0  0  0  0  0
    5.3990    1.1640   17.8660 C   0  0  0  0  0  0  0  0  0  0  0  0
    6.5340    0.4840   17.6500 N   0  0  0  0  0  0  0  0  0  0  0  0
    7.1510   -0.0360   18.7120 C   0  0  0  0  0  0  0  0  0  0  0  0
  2  1  1  0
  3  2  1  6
  4  3  1  0
  5  4  1  0
  6  5  1  0
  7  3  1  0
  8  6  1  0
  8  7  1  0
  9  8  1  0
  9 10  1  1
 11  9  1  0
 12 11  1  0
 13 11  1  0
 14 13  1  6
 15 14  1  0
 15 16  1  1
 17 15  1  0
 18 17  1  0
 19 18  1  0
 20 19  1  0
 20 14  1  0
M  END
$$$$

     RDKit          3D

 18 19  0  0  0  0  0  0  0  0999 V2000
   14.3470   -1.5000   21.5190 Cl  0  0  0  0  0  0  0  0  0  0  0  0
   13.0180   -0.7020   22.3000 C   0  0  0  0  0  0  0  0  0  0  0  0
   13.2690    0.3900   23.1100 C   0  0  0  0  0  0  0  0  0  0  0  0
   12.2100    0.9740   23.7880 C   0  0  0  0  0  0  0  0  0  0  0  0
   10.9200    0.4990   23.6170 C   0  0  0  0  0  0  0  0  0  0  0  0
   11.7430   -1.1950   22.1150 C   0  0  0  0  0  0  0  0  0  0  0  0
   10.6810   -0.5570   22.7450 C   0  0  2  0  0  0  0  0  0  0  0  0
    9.3770   -0.8200   22.2740 N   0  0  0  0  0  0  0  0  0  0  0  0
    8.7350   -0.0500   21.3440 C   0  0  0  0  0  0  0  0  0  0  0  0
    9.2010    0.9970   20.9010 O   0  0  0  0  0  0  0  0  0  0  0  0
    7.5410   -0.5720   20.9290 N   0  0  0  0  0  0  0  0  0  0  0  0
    6.7550   -0.0210   19.8950 C   0  0  2  0  0  0  0  0  0  0  0  0
    7.2160   -0.0810   18.5820 C   0  0  0  0  0  0  0  0  0  0  0  0
    6.6190    0.5340   17.5590 N   0  0  0  0  0  0  0  0  0  0  0  0
    5.5060    1.2230   17.8120 C   0  0  0  0  0  0  0  0  0  0  0  0
    5.5950    0.7040   20.1410 C   0  0  0  0  0  0  0  0  0  0  0  0
    4.9440    1.3510   19.0910 C   0  0  0  0  0  0  0  0  0  0  0  0
    3.8130    2.0940   19.3190 N   0  0  0  0  0  0  0  0  0  0  0  0
  2  1  1  0
  3  2  1  0
  4  3  1  0
  5  4  1  0
  6  2  1  0
  7  6  1  0
  7  5  1  0
  7  8  1  6
  9  8  1  0
 10  9  1  0
 11  9  1  0
 12 11  1  1
 13 12  1  0
 14 13  1  0
 15 14  1  0
 16 12  1  0
 17 16  1  0
 17 15  1  0
 18 17  1  0
M  END
$$$$

     RDKit          3D

 23 24  0  0  0  0  0  0  0  0999 V2000
    9.2180    0.9180   20.9910 O   0  0  0  0  0  0  0  0  0  0  0  0
    8.5900   -0.0110   21.4930 C   0  0  0  0  0  0  0  0  0  0  0  0
    7.4020   -0.4580   21.0370 N   0  0  0  0  0  0  0  0  0  0  0  0
    6.6960    0.0510   19.9280 C   0  0  2  0  0  0  0  0  0  0  0  0
    7.2530   -0.0360   18.6530 C   0  0  0  0  0  0  0  0  0  0  0  0
    6.7460    0.5810   17.5820 N   0  0  0  0  0  0  0  0  0  0  0  0
    5.6280    1.2910   17.7560 C   0  0  0  0  0  0  0  0  0  0  0  0
    4.9750    1.4080   18.9710 C   0  0  0  0  0  0  0  0  0  0  0  0
    5.5200    0.7770   20.0740 C   0  0  0  0  0  0  0  0  0  0  0  0
    9.1360   -0.7650   22.6920 C   0  0  0  0  0  0  0  0  0  0  0  0
   10.5870   -0.6060   22.7830 N   0  0  0  0  0  0  0  0  0  0  0  0
   11.2530   -1.9140   22.7180 C   0  0  0  0  0  0  0  0  0  0  0  0
   12.7530   -1.7600   22.5790 C   0  0  0  0  0  0  0  0  0  0  0  0
   13.3200   -0.9030   23.7010 C   0  0  0  0  0  0  0  0  0  0  0  0
   12.5500    0.4070   23.8700 C   0  0  0  0  0  0  0  0  0  0  0  0
   11.0450    0.1650   23.9600 C   0  0  1  0  0  0  0  0  0  0  0  0
   10.2420    1.4300   24.2800 C   0  0  0  0  0  0  0  0  0  0  0  0
   10.7120    2.7310   23.6510 C   0  0  0  0  0  0  0  0  0  0  0  0
   10.7790    3.7750   24.6800 N   0  0  0  0  0  0  0  0  0  0  0  0
   10.6450    5.3420   24.3000 S   0  0  1  0  0  0  0  0  0  0  0  0
   10.2620    6.0240   25.4980 O   0  0  0  0  0  0  0  0  0  0  0  0
   11.8630    5.7190   23.6540 O   0  0  0  0  0  0  0  0  0  0  0  0
    9.3410    5.4990   23.1420 C   0  0  0  0  0  0  0  0  0  0  0  0
  2  1  1  0
  3  2  1  0
  4  3  1  1
  5  4  1  0
  6  5  1  0
  7  6  1  0
  8  7  1  0
  9  8  1  0
  9  4  1  0
 10  2  1  0
 11 10  1  0
 12 11  1  0
 13 12  1  0
 14 13  1  0
 15 14  1  0
 16 11  1  0
 16 15  1  0
 16 17  1  6
 18 17  1  0
 19 18  1  0
 20 19  1  0
 21 20  1  0
 22 20  1  0
 20 23  1  6
M  END
$$$$

     RDKit          3D

 26 28  0  0  0  0  0  0  0  0999 V2000
   12.0470    0.5290   23.5650 O   0  0  0  0  0  0  0  0  0  0  0  0
   11.2200   -0.0310   24.5860 S   0  0  2  0  0  0  0  0  0  0  0  0
   10.9240    0.7320   25.7590 O   0  0  0  0  0  0  0  0  0  0  0  0
   11.9800   -1.5510   25.1170 C   0  0  2  0  0  0  0  0  0  0  0  0
   11.2290   -2.6550   25.6170 C   0  0  1  0  0  0  0  0  0  0  0  0
    9.8650   -2.6370   25.5340 N   0  0  0  0  0  0  0  0  0  0  0  0
    9.2130   -3.7220   25.9200 C   0  0  0  0  0  0  0  0  0  0  0  0
    9.8210   -4.8650   26.4040 C   0  0  0  0  0  0  0  0  0  0  0  0
   11.1800   -4.8940   26.5010 C   0  0  0  0  0  0  0  0  0  0  0  0
   11.9470   -3.7730   26.1060 C   0  0  1  0  0  0  0  0  0  0  0  0
   13.3620   -3.7450   26.0930 C   0  0  0  0  0  0  0  0  0  0  0  0
   14.0330   -2.6780   25.5820 C   0  0  0  0  0  0  0  0  0  0  0  0
   13.3480   -1.5850   25.0830 C   0  0  0  0  0  0  0  0  0  0  0  0
    9.7890   -0.3860   23.8950 N   0  0  0  0  0  0  0  0  0  0  0  0
    8.5860   -0.3160   24.7310 C   0  0  0  0  0  0  0  0  0  0  0  0
    9.6770   -1.0530   22.5840 C   0  0  0  0  0  0  0  0  0  0  0  0
    9.0880   -0.1620   21.5050 C   0  0  0  0  0  0  0  0  0  0  0  0
    9.6690    0.8480   21.1130 O   0  0  0  0  0  0  0  0  0  0  0  0
    7.8850   -0.5740   21.0490 N   0  0  0  0  0  0  0  0  0  0  0  0
    7.1180    0.0070   20.0120 C   0  0  0  0  0  0  0  0  0  0  0  0
    5.8840    0.6140   20.3100 C   0  0  0  0  0  0  0  0  0  0  0  0
    5.3640    0.7140   21.7210 C   0  0  0  0  0  0  0  0  0  0  0  0
    5.1570    1.1410   19.2450 C   0  0  0  0  0  0  0  0  0  0  0  0
    5.6640    1.0560   17.9640 C   0  0  0  0  0  0  0  0  0  0  0  0
    6.8390    0.4890   17.6690 N   0  0  0  0  0  0  0  0  0  0  0  0
    7.5440   -0.0240   18.6830 C   0  0  0  0  0  0  0  0  0  0  0  0
  2  1  1  6
  3  2  1  0
  4  2  1  0
  5  4  1  0
  5  6  1  6
  7  6  1  0
  8  7  1  0
  9  8  1  0
 10  9  1  6
 10  5  1  0
 11 10  1  0
 12 11  1  0
 13 12  1  0
  4 13  1  1
 14  2  1  0
 15 14  1  0
 16 14  1  0
 17 16  1  0
 18 17  1  0
 19 17  1  0
 20 19  1  0
 21 20  1  0
 22 21  1  0
 23 21  1  0
 24 23  1  0
 25 24  1  0
 26 25  1  0
 26 20  1  0
M  END
$$$$

     RDKit          3D

 21 22  0  0  0  0  0  0  0  0999 V2000
    8.2270    0.0940   25.1670 O   0  0  0  0  0  0  0  0  0  0  0  0
    8.5110   -0.9340   24.5560 C   0  0  0  0  0  0  0  0  0  0  0  0
    7.6800   -2.1940   24.6950 C   0  0  0  0  0  0  0  0  0  0  0  0
    8.4950   -3.4220   25.0350 C   0  0  0  0  0  0  0  0  0  0  0  0
    9.4000   -3.9580   24.1300 C   0  0  0  0  0  0  0  0  0  0  0  0
   10.1490   -5.0420   24.3700 N   0  0  0  0  0  0  0  0  0  0  0  0
    9.9990   -5.6350   25.5600 C   0  0  0  0  0  0  0  0  0  0  0  0
    9.1220   -5.1870   26.5270 C   0  0  0  0  0  0  0  0  0  0  0  0
    8.3630   -4.0680   26.2520 C   0  0  0  0  0  0  0  0  0  0  0  0
    9.5260   -1.0020   23.6980 N   0  0  0  0  0  0  0  0  0  0  0  0
   10.1140    0.1880   23.1260 C   0  0  0  0  0  0  0  0  0  0  0  0
    9.4900    0.6540   21.8220 C   0  0  0  0  0  0  0  0  0  0  0  0
    9.9180    1.6510   21.2580 O   0  0  0  0  0  0  0  0  0  0  0  0
    8.4470   -0.0800   21.3600 N   0  0  0  0  0  0  0  0  0  0  0  0
    7.5400    0.2460   20.3160 C   0  0  0  0  0  0  0  0  0  0  0  0
    6.3490    0.9300   20.6340 C   0  0  0  0  0  0  0  0  0  0  0  0
    6.0450    1.3870   22.0370 C   0  0  0  0  0  0  0  0  0  0  0  0
    7.7630   -0.1020   18.9800 C   0  0  0  0  0  0  0  0  0  0  0  0
    6.9050    0.1680   17.9870 N   0  0  0  0  0  0  0  0  0  0  0  0
    5.7770    0.8050   18.3070 C   0  0  0  0  0  0  0  0  0  0  0  0
    5.4630    1.2000   19.5910 C   0  0  0  0  0  0  0  0  0  0  0  0
  2  1  1  0
  3  2  1  0
  4  3  1  0
  5  4  1  0
  6  5  1  0
  7  6  1  0
  8  7  1  0
  9  8  1  0
  9  4  1  0
 10  2  1  0
 11 10  1  0
 12 11  1  0
 13 12  1  0
 14 12  1  0
 15 14  1  0
 16 15  1  0
 17 16  1  0
 18 15  1  0
 19 18  1  0
 20 19  1  0
 21 20  1  0
 21 16  1  0
M  END
$$$$

     RDKit          3D

 28 30  0  0  0  0  0  0  0  0999 V2000
   13.7360   -1.3080   20.8050 F   0  0  0  0  0  0  0  0  0  0  0  0
   12.9930   -0.8740   21.8550 C   0  0  0  0  0  0  0  0  0  0  0  0
   13.4600    0.1860   22.5900 C   0  0  0  0  0  0  0  0  0  0  0  0
   12.7200    0.6060   23.6810 C   0  0  0  0  0  0  0  0  0  0  0  0
   11.8200   -1.5240   22.1360 C   0  0  0  0  0  0  0  0  0  0  0  0
   11.0800   -1.1020   23.2260 C   0  0  0  0  0  0  0  0  0  0  0  0
   11.5390   -0.0480   23.9980 C   0  0  0  0  0  0  0  0  0  0  0  0
   10.5800    0.5050   25.3640 S   0  0  2  0  0  0  0  0  0  0  0  0
   11.3750    1.4210   26.1240 O   0  0  0  0  0  0  0  0  0  0  0  0
   10.0140   -0.6450   26.0060 O   0  0  0  0  0  0  0  0  0  0  0  0
    9.3550    1.3440   24.6950 N   0  0  0  0  0  0  0  0  0  0  0  0
    9.2060    2.7020   24.2960 C   0  0  1  0  0  0  0  0  0  0  0  0
   10.0110    3.7220   24.8090 C   0  0  0  0  0  0  0  0  0  0  0  0
    9.8910    5.0120   24.3140 C   0  0  0  0  0  0  0  0  0  0  0  0
    8.9800    5.2960   23.3150 C   0  0  0  0  0  0  0  0  0  0  0  0
    8.1970    4.2890   22.7710 C   0  0  0  0  0  0  0  0  0  0  0  0
    8.3260    2.9800   23.2400 C   0  0  1  0  0  0  0  0  0  0  0  0
    7.7510    1.8730   22.5680 N   0  0  0  0  0  0  0  0  0  0  0  0
    8.2980    1.2130   21.5150 C   0  0  1  0  0  0  0  0  0  0  0  0
    9.2860    1.6160   20.9070 O   0  0  0  0  0  0  0  0  0  0  0  0
    7.7140   -0.1600   21.1700 C   0  0  1  0  0  0  0  0  0  0  0  0
    6.8190   -0.6400   22.1720 O   0  0  0  0  0  0  0  0  0  0  0  0
    6.9210    0.1610   19.9120 C   0  0  2  0  0  0  0  0  0  0  0  0
    7.4750    0.0410   18.6450 C   0  0  0  0  0  0  0  0  0  0  0  0
    6.8730    0.4430   17.5190 N   0  0  0  0  0  0  0  0  0  0  0  0
    5.6490    0.9760   17.6330 C   0  0  0  0  0  0  0  0  0  0  0  0
    4.9930    1.1170   18.8400 C   0  0  0  0  0  0  0  0  0  0  0  0
    5.6430    0.6990   19.9880 C   0  0  0  0  0  0  0  0  0  0  0  0
  2  1  1  0
  3  2  1  0
  4  3  1  0
  5  2  1  0
  6  5  1  0
  7  6  1  0
  7  4  1  0
  8  7  1  0
  8  9  1  1
 10  8  1  0
 11  8  1  0
 12 11  1  6
 13 12  1  0
 14 13  1  0
 15 14  1  0
 16 15  1  0
 17 16  1  0
 17 12  1  0
 17 18  1  6
 19 18  1  0
 19 20  1  1
 21 19  1  0
 21 22  1  1
 23 21  1  0
 23 24  1  6
 25 24  1  0
 26 25  1  0
 27 26  1  0
 28 27  1  0
 28 23  1  0
M  END
$$$$

     RDKit          3D

 28 29  0  0  0  0  0  0  0  0999 V2000
    5.6440   -2.2960   21.0110 O   0  0  0  0  0  0  0  0  0  0  0  0
    6.7700   -2.4480   21.4550 C   0  0  0  0  0  0  0  0  0  0  0  0
    7.3330   -3.8360   21.6160 C   0  0  0  0  0  0  0  0  0  0  0  0
    7.2180   -4.6080   20.3380 C   0  0  0  0  0  0  0  0  0  0  0  0
    7.5620   -1.3820   21.7820 N   0  0  0  0  0  0  0  0  0  0  0  0
    8.7860   -1.5490   22.5180 C   0  0  0  0  0  0  0  0  0  0  0  0
   10.0070   -1.6480   21.8520 C   0  0  0  0  0  0  0  0  0  0  0  0
   11.1840   -1.7790   22.5700 C   0  0  0  0  0  0  0  0  0  0  0  0
   11.1790   -1.8170   23.9630 C   0  0  1  0  0  0  0  0  0  0  0  0
   12.4830   -1.8760   24.7720 C   0  0  2  0  0  0  0  0  0  0  0  0
   13.7110   -2.1180   23.8890 C   0  0  0  0  0  0  0  0  0  0  0  0
   12.4310   -3.0040   25.8150 C   0  0  0  0  0  0  0  0  0  0  0  0
   12.6900   -0.5480   25.5050 C   0  0  0  0  0  0  0  0  0  0  0  0
    9.9520   -1.7410   24.6180 C   0  0  0  0  0  0  0  0  0  0  0  0
    8.7690   -1.6060   23.9100 C   0  0  0  0  0  0  0  0  0  0  0  0
    7.1540    0.0200   21.4770 C   0  0  1  0  0  0  0  0  0  0  0  0
    8.2280    1.0720   21.7990 C   0  0  0  0  0  0  0  0  0  0  0  0
    9.1360    1.3060   21.0080 O   0  0  0  0  0  0  0  0  0  0  0  0
    8.0680    1.7050   22.9630 N   0  0  0  0  0  0  0  0  0  0  0  0
    9.0770    2.6020   23.5150 C   0  0  0  0  0  0  0  0  0  0  0  0
   10.3090    1.8510   23.9500 C   0  0  0  0  0  0  0  0  0  0  0  0
    6.5090    0.2740   20.1230 C   0  0  1  0  0  0  0  0  0  0  0  0
    5.3600    1.0440   20.0130 C   0  0  0  0  0  0  0  0  0  0  0  0
    6.6480    0.1780   17.7180 N   0  0  0  0  0  0  0  0  0  0  0  0
    4.8660    1.3810   18.7670 C   0  0  0  0  0  0  0  0  0  0  0  0
    5.5410    0.9260   17.6530 C   0  0  0  0  0  0  0  0  0  0  0  0
    7.1030   -0.1380   18.9360 C   0  0  0  0  0  0  0  0  0  0  0  0
    8.1980   -3.8620   19.0080 S   0  0  0  0  0  0  0  0  0  0  0  0
  2  1  1  0
  3  2  1  0
  4  3  1  0
  5  2  1  0
  6  5  1  0
  7  6  1  0
  8  7  1  0
  9  8  1  6
 10  9  1  0
 10 11  1  6
 12 10  1  0
 13 10  1  0
 14  9  1  0
 15 14  1  0
 15  6  1  0
 16  5  1  0
 16 17  1  6
 18 17  1  0
 19 17  1  0
 20 19  1  0
 21 20  1  0
 22 16  1  0
 22 23  1  6
 25 23  1  0
 26 25  1  0
 26 24  1  0
 27 24  1  0
 27 22  1  0
  4 28  1  0
M  END
$$$$

     RDKit          3D

 20 22  0  0  0  0  0  0  0  0999 V2000
    9.8100    1.1460   21.2210 O   0  0  0  0  0  0  0  0  0  0  0  0
    9.5230    0.0530   21.6910 C   0  0  0  0  0  0  0  0  0  0  0  0
    8.4110   -0.6330   21.3370 N   0  0  0  0  0  0  0  0  0  0  0  0
    7.5100   -0.2020   20.3250 C   0  0  0  0  0  0  0  0  0  0  0  0
    7.8770   -0.1450   18.9770 C   0  0  0  0  0  0  0  0  0  0  0  0
    7.0650    0.2920   18.0050 N   0  0  0  0  0  0  0  0  0  0  0  0
    5.8340    0.6740   18.3580 C   0  0  0  0  0  0  0  0  0  0  0  0
    5.3780    0.6650   19.6620 C   0  0  0  0  0  0  0  0  0  0  0  0
    6.2170    0.2250   20.6830 C   0  0  0  0  0  0  0  0  0  0  0  0
    5.7560    0.2470   22.1170 C   0  0  0  0  0  0  0  0  0  0  0  0
   10.4380   -0.6360   22.6860 C   0  0  0  0  0  0  0  0  0  0  0  0
    9.8200   -1.6950   23.5710 C   0  0  1  0  0  0  0  0  0  0  0  0
   10.2310   -3.0210   23.4530 C   0  0  0  0  0  0  0  0  0  0  0  0
    9.8070   -3.9620   24.3900 C   0  0  0  0  0  0  0  0  0  0  0  0
   10.0930   -5.3220   24.5300 N   0  0  0  0  0  0  0  0  0  0  0  0
    9.4530   -5.6830   25.6250 C   0  0  0  0  0  0  0  0  0  0  0  0
    8.7670   -4.6740   26.2120 N   0  0  0  0  0  0  0  0  0  0  0  0
    8.9730   -3.5630   25.4340 C   0  0  0  0  0  0  0  0  0  0  0  0
    8.5220   -2.2560   25.5480 C   0  0  0  0  0  0  0  0  0  0  0  0
    8.9460   -1.3390   24.5990 C   0  0  0  0  0  0  0  0  0  0  0  0
  2  1  1  0
  3  2  1  0
  4  3  1  0
  5  4  1  0
  6  5  1  0
  7  6  1  0
  8  7  1  0
  9  8  1  0
  9  4  1  0
 10  9  1  0
 11  2  1  0
 12 11  1  1
 13 12  1  0
 14 13  1  0
 15 14  1  0
 16 15  1  0
 17 16  1  0
 18 17  1  0
 18 14  1  0
 19 18  1  0
 20 19  1  0
 20 12  1  0
M  END
$$$$

     RDKit          3D

 24 26  0  0  0  0  0  0  0  0999 V2000
   13.3650    6.8310   22.0800 O   0  0  0  0  0  0  0  0  0  0  0  0
   13.3830    5.6270   22.3300 C   0  0  0  0  0  0  0  0  0  0  0  0
   12.7740    4.3770   21.7080 C   0  0  0  0  0  0  0  0  0  0  0  0
   13.9760    4.9240   23.3130 N   0  0  0  0  0  0  0  0  0  0  0  0
   13.6420    3.6170   22.7170 C   0  0  1  0  0  0  0  0  0  0  0  0
   12.7580    2.8360   23.5460 O   0  0  0  0  0  0  0  0  0  0  0  0
   12.4220    1.5760   23.0940 C   0  0  0  0  0  0  0  0  0  0  0  0
   13.3970    0.6660   22.7190 C   0  0  0  0  0  0  0  0  0  0  0  0
   12.9910   -0.5810   22.2890 C   0  0  0  0  0  0  0  0  0  0  0  0
   14.1920   -1.7270   21.7660 Cl  0  0  0  0  0  0  0  0  0  0  0  0
   11.6550   -0.9330   22.2230 C   0  0  0  0  0  0  0  0  0  0  0  0
   11.0750    1.2440   23.0520 C   0  0  0  0  0  0  0  0  0  0  0  0
   10.6840   -0.0150   22.6070 C   0  0  0  0  0  0  0  0  0  0  0  0
    9.2190   -0.3740   22.5140 C   0  0  0  0  0  0  0  0  0  0  0  0
    8.5370    0.3390   21.3640 C   0  0  0  0  0  0  0  0  0  0  0  0
    8.9560    1.4080   20.9230 O   0  0  0  0  0  0  0  0  0  0  0  0
    7.4340   -0.2790   20.8840 N   0  0  0  0  0  0  0  0  0  0  0  0
    6.6760    0.2320   19.8050 C   0  0  1  0  0  0  0  0  0  0  0  0
    5.5820    1.0780   20.0610 C   0  0  0  0  0  0  0  0  0  0  0  0
    5.1310    1.3970   21.4650 C   0  0  0  0  0  0  0  0  0  0  0  0
    7.0310   -0.0200   18.4790 C   0  0  0  0  0  0  0  0  0  0  0  0
    6.3810    0.5000   17.4290 N   0  0  0  0  0  0  0  0  0  0  0  0
    5.3470    1.3090   17.6870 C   0  0  0  0  0  0  0  0  0  0  0  0
    4.9180    1.6170   18.9640 C   0  0  0  0  0  0  0  0  0  0  0  0
  2  1  1  0
  3  2  1  0
  4  2  1  0
  5  3  1  0
  5  4  1  0
  5  6  1  1
  7  6  1  0
  8  7  1  0
  9  8  1  0
 10  9  1  0
 11  9  1  0
 12  7  1  0
 13 12  1  0
 13 11  1  0
 14 13  1  0
 15 14  1  0
 16 15  1  0
 17 15  1  0
 18 17  1  1
 19 18  1  0
 20 19  1  0
 21 18  1  0
 22 21  1  0
 23 22  1  0
 24 23  1  0
 24 19  1  0
M  END
$$$$

     RDKit          3D

 21 23  0  0  0  0  0  0  0  0999 V2000
   14.2580   -1.6380   20.8060 Cl  0  0  0  0  0  0  0  0  0  0  0  0
   13.2120   -0.7790   21.9080 C   0  0  1  0  0  0  0  0  0  0  0  0
   13.7500    0.1810   22.7400 C   0  0  0  0  0  0  0  0  0  0  0  0
   12.9050    0.9490   23.5220 C   0  0  0  0  0  0  0  0  0  0  0  0
   11.8540   -1.0140   21.8560 C   0  0  0  0  0  0  0  0  0  0  0  0
   10.9870   -0.2460   22.6280 C   0  0  0  0  0  0  0  0  0  0  0  0
   11.5350    0.7350   23.4650 C   0  0  0  0  0  0  0  0  0  0  0  0
   10.7800    1.5040   24.3210 O   0  0  0  0  0  0  0  0  0  0  0  0
    9.3350    1.3260   24.3050 C   0  0  0  0  0  0  0  0  0  0  0  0
    8.8890   -0.0690   23.9410 C   0  0  0  0  0  0  0  0  0  0  0  0
    9.4890   -0.4810   22.5900 C   0  0  1  0  0  0  0  0  0  0  0  0
    8.8490    0.2310   21.3940 C   0  0  0  0  0  0  0  0  0  0  0  0
    9.2790    1.3000   20.9590 O   0  0  0  0  0  0  0  0  0  0  0  0
    7.7870   -0.4210   20.8520 N   0  0  0  0  0  0  0  0  0  0  0  0
    6.9610    0.0430   19.7980 C   0  0  1  0  0  0  0  0  0  0  0  0
    5.7280    0.6480   20.1090 C   0  0  0  0  0  0  0  0  0  0  0  0
    5.2220    0.7390   21.5260 C   0  0  0  0  0  0  0  0  0  0  0  0
    7.3530   -0.0020   18.4560 C   0  0  0  0  0  0  0  0  0  0  0  0
    6.6330    0.5150   17.4500 N   0  0  0  0  0  0  0  0  0  0  0  0
    5.4700    1.0940   17.7650 C   0  0  0  0  0  0  0  0  0  0  0  0
    4.9870    1.1810   19.0560 C   0  0  0  0  0  0  0  0  0  0  0  0
  2  1  1  6
  3  2  1  0
  4  3  1  0
  5  2  1  0
  6  5  1  0
  7  6  1  0
  7  4  1  0
  8  7  1  0
  9  8  1  0
 10  9  1  0
 11 10  1  0
 11  6  1  0
 11 12  1  6
 13 12  1  0
 14 12  1  0
 15 14  1  1
 16 15  1  0
 17 16  1  0
 18 15  1  0
 19 18  1  0
 20 19  1  0
 21 20  1  0
 21 16  1  0
M  END
$$$$

     RDKit          3D

 21 23  0  0  0  0  0  0  0  0999 V2000
   13.7580   -1.4780   21.1830 Cl  0  0  0  0  0  0  0  0  0  0  0  0
   12.6280   -0.6340   22.2070 C   0  0  0  0  0  0  0  0  0  0  0  0
   13.0850    0.3730   23.0260 C   0  0  0  0  0  0  0  0  0  0  0  0
   12.1920    1.0230   23.8580 C   0  0  0  0  0  0  0  0  0  0  0  0
   11.2950   -0.9890   22.1650 C   0  0  0  0  0  0  0  0  0  0  0  0
   10.3770   -0.3300   22.9780 C   0  0  0  0  0  0  0  0  0  0  0  0
   10.8530    0.6570   23.8460 C   0  0  1  0  0  0  0  0  0  0  0  0
   10.0630    1.2500   24.8010 O   0  0  0  0  0  0  0  0  0  0  0  0
    8.6500    1.2730   24.5140 C   0  0  0  0  0  0  0  0  0  0  0  0
    8.1380   -0.0940   24.1340 C   0  0  0  0  0  0  0  0  0  0  0  0
    8.8890   -0.6170   22.8990 C   0  0  1  0  0  0  0  0  0  0  0  0
    8.3370    0.0500   21.6370 C   0  0  0  0  0  0  0  0  0  0  0  0
    8.8530    1.0550   21.1470 O   0  0  0  0  0  0  0  0  0  0  0  0
    7.2390   -0.5500   21.1210 N   0  0  0  0  0  0  0  0  0  0  0  0
    6.5190   -0.0810   19.9950 C   0  0  1  0  0  0  0  0  0  0  0  0
    5.3380    0.6610   20.1880 C   0  0  0  0  0  0  0  0  0  0  0  0
    4.7220    0.8440   21.5510 C   0  0  0  0  0  0  0  0  0  0  0  0
    7.0020   -0.2360   18.6950 C   0  0  0  0  0  0  0  0  0  0  0  0
    6.4160    0.3020   17.6170 N   0  0  0  0  0  0  0  0  0  0  0  0
    5.3040    1.0170   17.8160 C   0  0  0  0  0  0  0  0  0  0  0  0
    4.7390    1.2160   19.0580 C   0  0  0  0  0  0  0  0  0  0  0  0
  2  1  1  0
  3  2  1  0
  4  3  1  0
  5  2  1  0
  6  5  1  0
  7  6  1  0
  7  4  1  1
  8  7  1  0
  9  8  1  0
 10  9  1  0
 11 10  1  0
 11  6  1  0
 11 12  1  6
 13 12  1  0
 14 12  1  0
 15 14  1  1
 16 15  1  0
 17 16  1  0
 18 15  1  0
 19 18  1  0
 20 19  1  0
 21 20  1  0
 21 16  1  0
M  END
$$$$

     RDKit          3D

 22 23  0  0  0  0  0  0  0  0999 V2000
   13.9940   -1.4630   21.3920 Cl  0  0  0  0  0  0  0  0  0  0  0  0
   12.6720   -0.8600   22.3570 C   0  0  0  0  0  0  0  0  0  0  0  0
   12.9290    0.0510   23.3580 C   0  0  0  0  0  0  0  0  0  0  0  0
   11.8660    0.5310   24.1070 C   0  0  0  0  0  0  0  0  0  0  0  0
   10.5710    0.1140   23.8300 C   0  0  0  0  0  0  0  0  0  0  0  0
   11.3900   -1.2910   22.0730 C   0  0  0  0  0  0  0  0  0  0  0  0
   10.3180   -0.7800   22.8010 C   0  0  2  0  0  0  0  0  0  0  0  0
    8.9000   -1.1370   22.4110 C   0  0  0  0  0  0  0  0  0  0  0  0
    8.3370   -0.2110   21.3520 C   0  0  0  0  0  0  0  0  0  0  0  0
    8.9750    0.7500   20.9230 O   0  0  0  0  0  0  0  0  0  0  0  0
    7.0970   -0.5320   20.9230 N   0  0  0  0  0  0  0  0  0  0  0  0
    6.4840    0.0290   19.7780 C   0  0  0  0  0  0  0  0  0  0  0  0
    6.9440   -0.1180   18.4710 C   0  0  0  0  0  0  0  0  0  0  0  0
    6.3760    0.4670   17.4110 N   0  0  0  0  0  0  0  0  0  0  0  0
    5.2970    1.2260   17.6260 C   0  0  0  0  0  0  0  0  0  0  0  0
    4.7440    1.4530   18.8720 C   0  0  0  0  0  0  0  0  0  0  0  0
    5.3510    0.8490   19.9600 C   0  0  1  0  0  0  0  0  0  0  0  0
    4.8080    0.8500   21.2570 O   0  0  0  0  0  0  0  0  0  0  0  0
    4.8130    2.0730   22.1000 C   0  0  2  0  0  0  0  0  0  0  0  0
    6.1340    2.8030   21.9780 C   0  0  0  0  0  0  0  0  0  0  0  0
    4.6120    1.5530   23.5040 C   0  0  0  0  0  0  0  0  0  0  0  0
    3.6580    2.9590   21.6840 C   0  0  0  0  0  0  0  0  0  0  0  0
  2  1  1  0
  3  2  1  0
  4  3  1  0
  5  4  1  0
  6  2  1  0
  7  5  1  0
  7  6  1  0
  7  8  1  6
  9  8  1  0
 10  9  1  0
 11  9  1  0
 12 11  1  0
 13 12  1  0
 14 13  1  0
 15 14  1  0
 16 15  1  0
 17 16  1  0
 17 12  1  0
 17 18  1  6
 19 18  1  0
 19 20  1  1
 21 19  1  0
 22 19  1  0
M  END
$$$$

     RDKit          3D

 22 23  0  0  0  0  0  0  0  0999 V2000
   13.9750   -1.4640   21.5980 Cl  0  0  0  0  0  0  0  0  0  0  0  0
   12.6400   -0.8650   22.5430 C   0  0  0  0  0  0  0  0  0  0  0  0
   12.8900   -0.0370   23.6170 C   0  0  0  0  0  0  0  0  0  0  0  0
   11.8180    0.4620   24.3370 C   0  0  0  0  0  0  0  0  0  0  0  0
   10.5180    0.1330   23.9780 C   0  0  0  0  0  0  0  0  0  0  0  0
   11.3480   -1.2090   22.1790 C   0  0  0  0  0  0  0  0  0  0  0  0
   10.2720   -0.7060   22.8980 C   0  0  0  0  0  0  0  0  0  0  0  0
    8.8530   -1.0570   22.5000 C   0  0  0  0  0  0  0  0  0  0  0  0
    8.3190   -0.1500   21.4100 C   0  0  0  0  0  0  0  0  0  0  0  0
    8.9690    0.8040   20.9870 O   0  0  0  0  0  0  0  0  0  0  0  0
    7.0960   -0.4880   20.9410 N   0  0  0  0  0  0  0  0  0  0  0  0
    6.4750    0.0610   19.7920 C   0  0  0  0  0  0  0  0  0  0  0  0
    6.8740   -0.1550   18.4740 C   0  0  0  0  0  0  0  0  0  0  0  0
    6.2830    0.4080   17.4140 N   0  0  0  0  0  0  0  0  0  0  0  0
    5.2390    1.2130   17.6390 C   0  0  0  0  0  0  0  0  0  0  0  0
    4.7440    1.5060   18.8950 C   0  0  0  0  0  0  0  0  0  0  0  0
    5.3780    0.9290   19.9850 C   0  0  1  0  0  0  0  0  0  0  0  0
    4.8390    0.9430   21.2880 O   0  0  0  0  0  0  0  0  0  0  0  0
    4.8840    2.1620   22.1320 C   0  0  2  0  0  0  0  0  0  0  0  0
    3.7380    3.0780   21.7590 C   0  0  0  0  0  0  0  0  0  0  0  0
    6.2140    2.8730   21.9850 C   0  0  0  0  0  0  0  0  0  0  0  0
    4.7040    1.6300   23.5350 C   0  0  0  0  0  0  0  0  0  0  0  0
  2  1  1  0
  3  2  1  0
  4  3  1  0
  5  4  1  0
  6  2  1  0
  7  5  1  0
  7  6  1  0
  8  7  1  0
  9  8  1  0
 10  9  1  0
 11  9  1  0
 12 11  1  0
 13 12  1  0
 14 13  1  0
 15 14  1  0
 16 15  1  0
 17 16  1  0
 17 12  1  0
 17 18  1  6
 19 18  1  0
 19 20  1  6
 21 19  1  0
 22 19  1  0
M  END
$$$$

     RDKit          3D

 21 22  0  0  0  0  0  0  0  0999 V2000
   13.9840   -1.4220   21.3930 Cl  0  0  0  0  0  0  0  0  0  0  0  0
   12.6720   -0.7220   22.3010 C   0  0  0  0  0  0  0  0  0  0  0  0
   12.9360    0.2940   23.1970 C   0  0  0  0  0  0  0  0  0  0  0  0
   11.8790    0.8580   23.8910 C   0  0  0  0  0  0  0  0  0  0  0  0
   10.5820    0.4220   23.6660 C   0  0  0  0  0  0  0  0  0  0  0  0
   11.3870   -1.1760   22.0750 C   0  0  0  0  0  0  0  0  0  0  0  0
   10.3190   -0.5830   22.7420 C   0  0  2  0  0  0  0  0  0  0  0  0
    8.8980   -0.9620   22.3920 C   0  0  0  0  0  0  0  0  0  0  0  0
    8.2890   -0.0280   21.3640 C   0  0  0  0  0  0  0  0  0  0  0  0
    8.8360    1.0270   21.0380 O   0  0  0  0  0  0  0  0  0  0  0  0
    7.1250   -0.4660   20.8310 N   0  0  0  0  0  0  0  0  0  0  0  0
    6.4570    0.0990   19.7200 C   0  0  0  0  0  0  0  0  0  0  0  0
    5.3730    0.9660   19.9120 C   0  0  0  0  0  0  0  0  0  0  0  0
    4.8630    1.2720   21.2950 C   0  0  2  0  0  0  0  0  0  0  0  0
    3.7820    2.0620   21.2910 F   0  0  0  0  0  0  0  0  0  0  0  0
    5.7720    1.9070   22.0420 F   0  0  0  0  0  0  0  0  0  0  0  0
    4.4970    0.1750   21.9600 F   0  0  0  0  0  0  0  0  0  0  0  0
    6.8850   -0.1400   18.4160 C   0  0  0  0  0  0  0  0  0  0  0  0
    6.3220    0.4320   17.3470 N   0  0  0  0  0  0  0  0  0  0  0  0
    5.2960    1.2630   17.5580 C   0  0  0  0  0  0  0  0  0  0  0  0
    4.7810    1.5630   18.8070 C   0  0  0  0  0  0  0  0  0  0  0  0
  2  1  1  0
  3  2  1  0
  4  3  1  0
  5  4  1  0
  6  2  1  0
  7  5  1  0
  7  6  1  0
  7  8  1  6
  9  8  1  0
 10  9  1  0
 11  9  1  0
 12 11  1  0
 13 12  1  0
 14 13  1  0
 14 15  1  6
 16 14  1  0
 17 14  1  0
 18 12  1  0
 19 18  1  0
 20 19  1  0
 21 20  1  0
 21 13  1  0
M  END
$$$$

     RDKit          3D

 20 22  0  0  0  0  0  0  0  0999 V2000
    8.9450    0.9680   21.3820 O   0  0  0  0  0  0  0  0  0  0  0  0
    8.6270   -0.1580   21.7750 C   0  0  0  0  0  0  0  0  0  0  0  0
    9.3220   -0.8200   22.9530 C   0  0  0  0  0  0  0  0  0  0  0  0
   10.7930   -0.4840   23.0870 C   0  0  2  0  0  0  0  0  0  0  0  0
   11.2140    0.5330   23.9350 C   0  0  0  0  0  0  0  0  0  0  0  0
   12.5460    0.9180   23.9790 C   0  0  0  0  0  0  0  0  0  0  0  0
   13.4820    0.2950   23.1690 C   0  0  0  0  0  0  0  0  0  0  0  0
   11.7410   -1.1430   22.3080 C   0  0  0  0  0  0  0  0  0  0  0  0
   13.0630   -0.7350   22.3480 C   0  0  0  0  0  0  0  0  0  0  0  0
   14.2200   -1.5060   21.2950 Cl  0  0  0  0  0  0  0  0  0  0  0  0
    7.6280   -0.8810   21.2290 N   0  0  0  0  0  0  0  0  0  0  0  0
    6.9470   -0.3770   20.1190 N   0  0  0  0  0  0  0  0  0  0  0  0
    5.8110    0.4410   20.1460 C   0  0  2  0  0  0  0  0  0  0  0  0
    5.5870    0.7640   18.8040 C   0  0  0  0  0  0  0  0  0  0  0  0
    6.5290    0.1290   17.9850 N   0  0  0  0  0  0  0  0  0  0  0  0
    7.3020   -0.5260   18.8170 C   0  0  0  0  0  0  0  0  0  0  0  0
    5.0270    0.9530   21.1710 C   0  0  0  0  0  0  0  0  0  0  0  0
    4.0030    1.8280   20.8240 C   0  0  0  0  0  0  0  0  0  0  0  0
    3.7820    2.1830   19.4900 C   0  0  0  0  0  0  0  0  0  0  0  0
    4.5630    1.6510   18.4700 C   0  0  0  0  0  0  0  0  0  0  0  0
  2  1  1  0
  3  2  1  0
  4  3  1  6
  5  4  1  0
  6  5  1  0
  7  6  1  0
  8  4  1  0
  9  8  1  0
  9  7  1  0
 10  9  1  0
 11  2  1  0
 12 11  1  0
 13 12  1  0
 14 13  1  0
 15 14  1  0
 16 15  1  0
 16 12  1  0
 13 17  1  1
 18 17  1  0
 19 18  1  0
 20 19  1  0
 20 14  1  0
M  END
$$$$

     RDKit          3D

 20 22  0  0  0  0  0  0  0  0999 V2000
    9.2460    1.0260   21.2500 O   0  0  0  0  0  0  0  0  0  0  0  0
    8.7530    0.0440   21.8000 C   0  0  0  0  0  0  0  0  0  0  0  0
    9.3000   -0.4990   23.1060 C   0  0  0  0  0  0  0  0  0  0  0  0
   10.7990   -0.3780   23.2740 C   0  0  0  0  0  0  0  0  0  0  0  0
   11.3390    0.2980   24.3610 C   0  0  0  0  0  0  0  0  0  0  0  0
   12.7120    0.4160   24.5130 C   0  0  0  0  0  0  0  0  0  0  0  0
   13.5690   -0.1460   23.5800 C   0  0  0  0  0  0  0  0  0  0  0  0
   11.6610   -0.9480   22.3420 C   0  0  0  0  0  0  0  0  0  0  0  0
   13.0280   -0.8190   22.5080 C   0  0  0  0  0  0  0  0  0  0  0  0
   14.0920   -1.5070   21.3130 Cl  0  0  0  0  0  0  0  0  0  0  0  0
    7.7040   -0.6360   21.3020 N   0  0  0  0  0  0  0  0  0  0  0  0
    7.0950   -0.2020   20.1250 N   0  0  0  0  0  0  0  0  0  0  0  0
    5.9420    0.5790   20.0610 C   0  0  2  0  0  0  0  0  0  0  0  0
    5.7220    0.7560   18.6940 C   0  0  2  0  0  0  0  0  0  0  0  0
    6.7030    0.0890   17.9520 N   0  0  0  0  0  0  0  0  0  0  0  0
    7.4860   -0.4530   18.8510 C   0  0  0  0  0  0  0  0  0  0  0  0
    5.1940    1.2440   21.0240 C   0  0  0  0  0  0  0  0  0  0  0  0
    4.1850    2.0940   20.5810 C   0  0  0  0  0  0  0  0  0  0  0  0
    3.9330    2.2610   19.2180 C   0  0  0  0  0  0  0  0  0  0  0  0
    4.6950    1.5950   18.2630 C   0  0  0  0  0  0  0  0  0  0  0  0
  2  1  1  0
  3  2  1  0
  4  3  1  0
  5  4  1  0
  6  5  1  0
  7  6  1  0
  8  4  1  0
  9  8  1  0
  9  7  1  0
 10  9  1  0
 11  2  1  0
 12 11  1  0
 13 12  1  0
 14 13  1  0
 15 14  1  0
 16 15  1  0
 16 12  1  0
 13 17  1  1
 18 17  1  0
 19 18  1  0
 20 19  1  0
 14 20  1  1
M  END
$$$$

     RDKit          3D

 20 22  0  0  0  0  0  0  0  0999 V2000
    9.1340    1.0070   21.3850 O   0  0  0  0  0  0  0  0  0  0  0  0
    8.7340   -0.0810   21.7980 C   0  0  0  0  0  0  0  0  0  0  0  0
    9.3260   -0.7480   23.0250 C   0  0  0  0  0  0  0  0  0  0  0  0
   10.8050   -0.4590   23.1690 C   0  0  2  0  0  0  0  0  0  0  0  0
   11.2560    0.5250   24.0400 C   0  0  0  0  0  0  0  0  0  0  0  0
   12.5890    0.9040   24.0560 C   0  0  0  0  0  0  0  0  0  0  0  0
   13.4980    0.2990   23.2010 C   0  0  0  0  0  0  0  0  0  0  0  0
   11.7270   -1.1000   22.3450 C   0  0  0  0  0  0  0  0  0  0  0  0
   13.0530   -0.7110   22.3700 C   0  0  0  0  0  0  0  0  0  0  0  0
   14.1960   -1.5380   21.3470 Cl  0  0  0  0  0  0  0  0  0  0  0  0
    7.7040   -0.7610   21.2110 N   0  0  0  0  0  0  0  0  0  0  0  0
    7.0660   -0.3280   20.0470 C   0  0  1  0  0  0  0  0  0  0  0  0
    5.9280    0.4570   20.0800 N   0  0  0  0  0  0  0  0  0  0  0  0
    5.6320    0.7610   18.7500 C   0  0  0  0  0  0  0  0  0  0  0  0
    6.5150    0.1970   17.9230 N   0  0  0  0  0  0  0  0  0  0  0  0
    7.3940   -0.4730   18.7380 C   0  0  0  0  0  0  0  0  0  0  0  0
    5.1720    0.9450   21.1300 C   0  0  0  0  0  0  0  0  0  0  0  0
    4.1250    1.7590   20.8730 C   0  0  0  0  0  0  0  0  0  0  0  0
    3.7990    2.1020   19.5350 C   0  0  0  0  0  0  0  0  0  0  0  0
    4.5250    1.6080   18.4900 C   0  0  0  0  0  0  0  0  0  0  0  0
  2  1  1  0
  3  2  1  0
  4  3  1  6
  5  4  1  0
  6  5  1  0
  7  6  1  0
  8  4  1  0
  9  8  1  0
  9  7  1  0
 10  9  1  0
 11  2  1  0
 12 11  1  1
 13 12  1  0
 14 13  1  0
 15 14  1  0
 16 15  1  0
 16 12  1  0
 17 13  1  0
 18 17  1  0
 19 18  1  0
 20 19  1  0
 20 14  1  0
M  END
$$$$

     RDKit          3D

 20 22  0  0  0  0  0  0  0  0999 V2000
    9.3790    1.1080   21.2360 O   0  0  0  0  0  0  0  0  0  0  0  0
    8.8370    0.1250   21.7300 C   0  0  0  0  0  0  0  0  0  0  0  0
    9.2970   -0.4820   23.0420 C   0  0  0  0  0  0  0  0  0  0  0  0
   10.7920   -0.3860   23.2540 C   0  0  0  0  0  0  0  0  0  0  0  0
   11.3160    0.3360   24.3190 C   0  0  0  0  0  0  0  0  0  0  0  0
   12.6860    0.4800   24.4740 C   0  0  0  0  0  0  0  0  0  0  0  0
   13.5570   -0.0950   23.5600 C   0  0  0  0  0  0  0  0  0  0  0  0
   11.6690   -0.9850   22.3530 C   0  0  0  0  0  0  0  0  0  0  0  0
   13.0320   -0.8210   22.5130 C   0  0  0  0  0  0  0  0  0  0  0  0
   14.1090   -1.5120   21.3310 Cl  0  0  0  0  0  0  0  0  0  0  0  0
    7.7590   -0.4890   21.1600 N   0  0  0  0  0  0  0  0  0  0  0  0
    7.1780   -0.0980   19.9510 C   0  0  0  0  0  0  0  0  0  0  0  0
    6.0470    0.6940   19.9180 N   0  0  0  0  0  0  0  0  0  0  0  0
    5.7470    0.8830   18.5700 C   0  0  0  0  0  0  0  0  0  0  0  0
    6.6350    0.2610   17.7930 N   0  0  0  0  0  0  0  0  0  0  0  0
    7.5120   -0.3420   18.6600 C   0  0  0  0  0  0  0  0  0  0  0  0
    5.2980    1.2730   20.9250 C   0  0  0  0  0  0  0  0  0  0  0  0
    4.2380    2.0480   20.6020 C   0  0  0  0  0  0  0  0  0  0  0  0
    3.8960    2.2560   19.2440 C   0  0  0  0  0  0  0  0  0  0  0  0
    4.6290    1.6840   18.2420 C   0  0  0  0  0  0  0  0  0  0  0  0
  2  1  1  0
  3  2  1  0
  4  3  1  0
  5  4  1  0
  6  5  1  0
  7  6  1  0
  8  4  1  0
  9  8  1  0
  9  7  1  0
 10  9  1  0
 11  2  1  0
 12 11  1  0
 13 12  1  0
 14 13  1  0
 15 14  1  0
 16 15  1  0
 16 12  1  0
 17 13  1  0
 18 17  1  0
 19 18  1  0
 20 19  1  0
 20 14  1  0
M  END
$$$$

     RDKit          3D

 24 26  0  0  0  0  0  0  0  0999 V2000
   12.8720    6.6290   21.9460 O   0  0  0  0  0  0  0  0  0  0  0  0
   12.7380    5.5160   22.4350 C   0  0  1  0  0  0  0  0  0  0  0  0
   12.1400    4.1960   21.9810 C   0  0  0  0  0  0  0  0  0  0  0  0
   13.1740    4.9880   23.5940 N   0  0  0  0  0  0  0  0  0  0  0  0
   13.0080    3.5840   23.0830 C   0  0  1  0  0  0  0  0  0  0  0  0
   12.1610    2.7770   23.9120 O   0  0  0  0  0  0  0  0  0  0  0  0
   11.9860    1.5150   23.3940 C   0  0  0  0  0  0  0  0  0  0  0  0
   13.0260    0.6990   22.9710 C   0  0  0  0  0  0  0  0  0  0  0  0
   12.7090   -0.5350   22.4500 C   0  0  0  0  0  0  0  0  0  0  0  0
   13.9860   -1.5450   21.8440 Cl  0  0  0  0  0  0  0  0  0  0  0  0
   11.4030   -0.9750   22.3550 C   0  0  0  0  0  0  0  0  0  0  0  0
   10.6670    1.1030   23.3070 C   0  0  0  0  0  0  0  0  0  0  0  0
   10.3680   -0.1450   22.7750 C   0  0  0  0  0  0  0  0  0  0  0  0
    8.9300   -0.5730   22.6080 C   0  0  0  0  0  0  0  0  0  0  0  0
    8.2680    0.1330   21.4390 C   0  0  0  0  0  0  0  0  0  0  0  0
    8.6720    1.2150   21.0160 O   0  0  0  0  0  0  0  0  0  0  0  0
    7.2080   -0.5190   20.9180 N   0  0  0  0  0  0  0  0  0  0  0  0
    6.4300   -0.0210   19.8470 C   0  0  1  0  0  0  0  0  0  0  0  0
    5.2740    0.7380   20.1150 C   0  0  0  0  0  0  0  0  0  0  0  0
    4.7710    0.9580   21.5210 C   0  0  0  0  0  0  0  0  0  0  0  0
    6.8490   -0.1590   18.5230 C   0  0  0  0  0  0  0  0  0  0  0  0
    6.2240    0.4200   17.4890 N   0  0  0  0  0  0  0  0  0  0  0  0
    5.1300    1.1390   17.7560 C   0  0  0  0  0  0  0  0  0  0  0  0
    4.6220    1.3130   19.0290 C   0  0  0  0  0  0  0  0  0  0  0  0
  2  1  1  6
  3  2  1  0
  4  2  1  0
  5  4  1  0
  5  3  1  0
  5  6  1  1
  7  6  1  0
  8  7  1  0
  9  8  1  0
 10  9  1  0
 11  9  1  0
 12  7  1  0
 13 12  1  0
 13 11  1  0
 14 13  1  0
 15 14  1  0
 16 15  1  0
 17 15  1  0
 18 17  1  1
 19 18  1  0
 20 19  1  0
 21 18  1  0
 22 21  1  0
 23 22  1  0
 24 23  1  0
 24 19  1  0
M  END
$$$$

     RDKit          3D

 24 27  0  0  0  0  0  0  0  0999 V2000
   13.7380   -1.7580   21.4980 Cl  0  0  0  0  0  0  0  0  0  0  0  0
   12.4300   -1.0190   22.3650 C   0  0  0  0  0  0  0  0  0  0  0  0
   12.6720   -0.0640   23.3450 C   0  0  2  0  0  0  0  0  0  0  0  0
   14.2900    0.3390   23.8190 Cl  0  0  0  0  0  0  0  0  0  0  0  0
   11.1330   -1.3760   22.0500 C   0  0  0  0  0  0  0  0  0  0  0  0
   10.0550   -0.7870   22.7080 C   0  0  0  0  0  0  0  0  0  0  0  0
   10.3100    0.1720   23.7020 C   0  0  0  0  0  0  0  0  0  0  0  0
   11.6190    0.5380   24.0050 C   0  0  0  0  0  0  0  0  0  0  0  0
    8.6260   -1.1760   22.3870 C   0  0  1  0  0  0  0  0  0  0  0  0
    7.7780   -1.0770   23.6730 C   0  0  0  0  0  0  0  0  0  0  0  0
    7.8720    0.3200   24.2630 C   0  0  0  0  0  0  0  0  0  0  0  0
    9.2670    0.7300   24.4200 N   0  0  0  0  0  0  0  0  0  0  0  0
    8.0970   -0.2330   21.3050 C   0  0  0  0  0  0  0  0  0  0  0  0
    8.6630    0.8260   21.0220 O   0  0  0  0  0  0  0  0  0  0  0  0
    6.9630   -0.6580   20.7030 N   0  0  0  0  0  0  0  0  0  0  0  0
    6.2920    0.0130   19.6560 C   0  0  1  0  0  0  0  0  0  0  0  0
    5.2490    0.9060   19.9390 C   0  0  0  0  0  0  0  0  0  0  0  0
    4.7470    1.1570   21.3540 C   0  0  2  0  0  0  0  0  0  0  0  0
    3.5530    2.0370   21.6140 C   0  0  0  0  0  0  0  0  0  0  0  0
    4.9080    2.5200   21.9740 C   0  0  0  0  0  0  0  0  0  0  0  0
    4.6850    1.6040   18.8780 C   0  0  0  0  0  0  0  0  0  0  0  0
    5.1650    1.3950   17.6030 C   0  0  0  0  0  0  0  0  0  0  0  0
    6.1530    0.5440   17.3120 N   0  0  0  0  0  0  0  0  0  0  0  0
    6.6970   -0.1340   18.3290 C   0  0  0  0  0  0  0  0  0  0  0  0
  2  1  1  0
  3  2  1  0
  3  4  1  1
  5  2  1  0
  6  5  1  0
  7  6  1  0
  8  7  1  0
  8  3  1  0
  9  6  1  0
 10  9  1  0
 11 10  1  0
 12 11  1  0
 12  7  1  0
  9 13  1  6
 14 13  1  0
 15 13  1  0
 16 15  1  1
 17 16  1  0
 18 17  1  6
 19 18  1  0
 20 19  1  0
 20 18  1  0
 21 17  1  0
 22 21  1  0
 23 22  1  0
 24 23  1  0
 24 16  1  0
M  END
$$$$

     RDKit          3D

 30 33  0  0  0  0  0  0  0  0999 V2000
    9.2800    1.0640   21.0760 O   0  0  0  0  0  0  0  0  0  0  0  0
    8.7340    0.1120   21.6200 C   0  0  0  0  0  0  0  0  0  0  0  0
    9.3910   -0.5760   22.8350 C   0  0  1  0  0  0  0  0  0  0  0  0
    8.5890    0.0710   23.9950 C   0  0  0  0  0  0  0  0  0  0  0  0
    9.4610    0.8340   24.9780 C   0  0  0  0  0  0  0  0  0  0  0  0
   10.5270    1.5770   24.3630 O   0  0  0  0  0  0  0  0  0  0  0  0
    9.1320   -2.0980   22.7740 C   0  0  0  0  0  0  0  0  0  0  0  0
    9.8890   -2.8690   23.7460 N   0  0  0  0  0  0  0  0  0  0  0  0
    9.3090   -3.6400   24.6700 C   0  0  0  0  0  0  0  0  0  0  0  0
   10.2430   -4.4400   25.5070 C   0  0  0  0  0  0  0  0  0  0  0  0
    9.8220   -5.2560   26.4340 C   0  0  0  0  0  0  0  0  0  0  0  0
    8.0800   -3.6850   24.8090 O   0  0  0  0  0  0  0  0  0  0  0  0
   10.8950   -0.2950   22.8840 C   0  0  2  0  0  0  0  0  0  0  0  0
   11.3690    0.7810   23.6300 C   0  0  0  0  0  0  0  0  0  0  0  0
   12.7150    1.1220   23.6440 C   0  0  0  0  0  0  0  0  0  0  0  0
   13.6060    0.3930   22.8770 C   0  0  0  0  0  0  0  0  0  0  0  0
   11.8090   -1.0390   22.1380 C   0  0  0  0  0  0  0  0  0  0  0  0
   13.1400   -0.6650   22.1250 C   0  0  1  0  0  0  0  0  0  0  0  0
   14.2330   -1.4840   21.0390 Cl  0  0  0  0  0  0  0  0  0  0  0  0
    7.5220   -0.3520   21.2130 N   0  0  0  0  0  0  0  0  0  0  0  0
    6.7690    0.1260   20.1120 C   0  0  1  0  0  0  0  0  0  0  0  0
    5.6540    0.9940   20.3520 C   0  0  0  0  0  0  0  0  0  0  0  0
    5.1730    1.3260   21.6450 C   0  0  0  0  0  0  0  0  0  0  0  0
    4.0870    2.1410   21.8050 C   0  0  0  0  0  0  0  0  0  0  0  0
    3.4320    2.6770   20.7000 C   0  0  0  0  0  0  0  0  0  0  0  0
    3.8650    2.3990   19.4350 C   0  0  0  0  0  0  0  0  0  0  0  0
    4.9780    1.5460   19.2240 C   0  0  0  0  0  0  0  0  0  0  0  0
    5.4450    1.1870   17.9350 C   0  0  0  0  0  0  0  0  0  0  0  0
    6.4690    0.3760   17.7140 N   0  0  0  0  0  0  0  0  0  0  0  0
    7.1000   -0.1330   18.7820 C   0  0  0  0  0  0  0  0  0  0  0  0
  2  1  1  0
  3  2  1  0
  4  3  1  0
  5  4  1  0
  6  5  1  0
  3  7  1  6
  8  7  1  0
  9  8  1  0
 10  9  1  0
 11 10  1  0
 12  9  1  0
 13  3  1  0
 14 13  1  0
 14  6  1  0
 15 14  1  0
 16 15  1  0
 13 17  1  6
 18 17  1  0
 18 16  1  0
 18 19  1  6
 20  2  1  0
 21 20  1  6
 22 21  1  0
 23 22  1  0
 24 23  1  0
 25 24  1  0
 26 25  1  0
 27 26  1  0
 27 22  1  0
 28 27  1  0
 29 28  1  0
 30 29  1  0
 30 21  1  0
M  END
$$$$

     RDKit          3D

 21 23  0  0  0  0  0  0  0  0999 V2000
   14.0990   -1.4320   21.4400 Cl  0  0  0  0  0  0  0  0  0  0  0  0
   12.8010   -0.8230   22.4260 C   0  0  0  0  0  0  0  0  0  0  0  0
   13.0810    0.1010   23.4130 C   0  0  0  0  0  0  0  0  0  0  0  0
   12.0330    0.6030   24.1660 C   0  0  0  0  0  0  0  0  0  0  0  0
   10.7310    0.1960   23.9110 C   0  0  0  0  0  0  0  0  0  0  0  0
   11.5110   -1.2460   22.1680 C   0  0  0  0  0  0  0  0  0  0  0  0
   10.4530   -0.7160   22.9000 C   0  0  2  0  0  0  0  0  0  0  0  0
    9.0260   -1.0730   22.5450 C   0  0  0  0  0  0  0  0  0  0  0  0
    8.4170   -0.1570   21.5020 C   0  0  0  0  0  0  0  0  0  0  0  0
    8.9240    0.9300   21.2170 O   0  0  0  0  0  0  0  0  0  0  0  0
    7.2930   -0.6380   20.9200 N   0  0  0  0  0  0  0  0  0  0  0  0
    6.5780   -0.0340   19.8570 C   0  0  2  0  0  0  0  0  0  0  0  0
    6.9750   -0.2470   18.5390 C   0  0  0  0  0  0  0  0  0  0  0  0
    6.4100    0.3590   17.4860 N   0  0  0  0  0  0  0  0  0  0  0  0
    5.4060    1.2130   17.7190 C   0  0  0  0  0  0  0  0  0  0  0  0
    5.5120    0.8520   20.0720 C   0  0  0  0  0  0  0  0  0  0  0  0
    4.8600    1.2720   21.2000 N   0  0  0  0  0  0  0  0  0  0  0  0
    5.0890    0.9230   22.5930 C   0  0  0  0  0  0  0  0  0  0  0  0
    4.8950    1.5130   18.9860 C   0  0  0  0  0  0  0  0  0  0  0  0
    3.8860    2.3060   19.5890 C   0  0  0  0  0  0  0  0  0  0  0  0
    3.8660    2.1580   20.8970 N   0  0  0  0  0  0  0  0  0  0  0  0
  2  1  1  0
  3  2  1  0
  4  3  1  0
  5  4  1  0
  6  2  1  0
  7  5  1  0
  7  6  1  0
  7  8  1  6
  9  8  1  0
 10  9  1  0
 11  9  1  0
 12 11  1  1
 13 12  1  0
 14 13  1  0
 15 14  1  0
 16 12  1  0
 17 16  1  0
 18 17  1  0
 19 15  1  0
 19 16  1  0
 20 19  1  0
 21 20  1  0
 21 17  1  0
M  END
$$$$

     RDKit          3D

 21 23  0  0  0  0  0  0  0  0999 V2000
   14.0550   -1.5480   21.5750 Cl  0  0  0  0  0  0  0  0  0  0  0  0
   12.7320   -0.9160   22.5200 C   0  0  0  0  0  0  0  0  0  0  0  0
   12.9960   -0.0410   23.5490 C   0  0  0  0  0  0  0  0  0  0  0  0
   11.9320    0.4730   24.2760 C   0  0  0  0  0  0  0  0  0  0  0  0
   10.6300    0.1140   23.9590 C   0  0  0  0  0  0  0  0  0  0  0  0
   11.4410   -1.2920   22.2010 C   0  0  0  0  0  0  0  0  0  0  0  0
   10.3710   -0.7680   22.9190 C   0  0  0  0  0  0  0  0  0  0  0  0
    8.9520   -1.1400   22.5520 C   0  0  0  0  0  0  0  0  0  0  0  0
    8.3590   -0.2200   21.5030 C   0  0  0  0  0  0  0  0  0  0  0  0
    8.8610    0.8720   21.2410 O   0  0  0  0  0  0  0  0  0  0  0  0
    7.2520   -0.7070   20.8910 N   0  0  0  0  0  0  0  0  0  0  0  0
    6.5410   -0.0990   19.8250 C   0  0  2  0  0  0  0  0  0  0  0  0
    6.9640   -0.2790   18.5120 C   0  0  0  0  0  0  0  0  0  0  0  0
    6.4080    0.3390   17.4630 N   0  0  0  0  0  0  0  0  0  0  0  0
    5.3870    1.1700   17.6940 C   0  0  0  0  0  0  0  0  0  0  0  0
    5.4550    0.7630   20.0390 C   0  0  0  0  0  0  0  0  0  0  0  0
    4.7810    1.1530   21.1660 N   0  0  0  0  0  0  0  0  0  0  0  0
    4.9860    0.7690   22.5550 C   0  0  0  0  0  0  0  0  0  0  0  0
    4.8490    1.4380   18.9580 C   0  0  0  0  0  0  0  0  0  0  0  0
    3.8230    2.2110   19.5610 C   0  0  0  0  0  0  0  0  0  0  0  0
    3.7840    2.0360   20.8640 N   0  0  0  0  0  0  0  0  0  0  0  0
  2  1  1  0
  3  2  1  0
  4  3  1  0
  5  4  1  0
  6  2  1  0
  7  5  1  0
  7  6  1  0
  8  7  1  0
  9  8  1  0
 10  9  1  0
 11  9  1  0
 12 11  1  1
 13 12  1  0
 14 13  1  0
 15 14  1  0
 16 12  1  0
 17 16  1  0
 18 17  1  0
 19 15  1  0
 19 16  1  0
 20 19  1  0
 21 20  1  0
 21 17  1  0
M  END
$$$$

     RDKit          3D

 36 38  0  0  0  0  0  0  0  0999 V2000
    6.3510    1.1430   18.3550 C   0  0  0  0  0  0  0  0  0  0  0  0
    7.4830   -3.1920   19.6270 C   0  0  0  0  0  0  0  0  0  0  0  0
    9.0290   -0.8190   22.0060 C   0  0  0  0  0  0  0  0  0  0  0  0
   10.0830    1.9650   22.2860 C   0  0  0  0  0  0  0  0  0  0  0  0
   12.2270    4.5730   22.8400 C   0  0  0  0  0  0  0  0  0  0  0  0
    5.4820    0.7140   20.5890 C   0  0  0  0  0  0  0  0  0  0  0  0
    4.9230    1.8500   20.3230 C   0  0  0  0  0  0  0  0  0  0  0  0
   10.8610    0.6920   24.1700 C   0  0  0  0  0  0  0  0  0  0  0  0
    6.7360    0.5290   19.4340 C   0  0  1  0  0  0  0  0  0  0  0  0
   10.5150   -0.3640   22.2420 C   0  0  2  0  0  0  0  0  0  0  0  0
   11.7240   -0.6310   24.3490 C   0  0  1  0  0  0  0  0  0  0  0  0
   11.4400   -1.4160   23.0210 C   0  0  2  0  0  0  0  0  0  0  0  0
   12.8930   -1.2830   23.5540 C   0  0  1  0  0  0  0  0  0  0  0  0
   13.6910   -0.2160   22.7530 C   0  0  0  0  0  0  0  0  0  0  0  0
   13.5470   -2.5330   24.1560 C   0  0  0  0  0  0  0  0  0  0  0  0
    7.8250    2.7510   24.0780 C   0  0  0  0  0  0  0  0  0  0  0  0
    8.8040    5.1130   24.1810 C   0  0  0  0  0  0  0  0  0  0  0  0
    7.9640    4.1830   21.9960 C   0  0  0  0  0  0  0  0  0  0  0  0
    6.8700   -0.9850   19.1290 C   0  0  0  0  0  0  0  0  0  0  0  0
    7.3890   -1.8350   20.2960 C   0  0  2  0  0  0  0  0  0  0  0  0
   10.0870    3.2730   23.1010 C   0  0  2  0  0  0  0  0  0  0  0  0
   13.0310    5.5100   21.9410 C   0  0  2  0  0  0  0  0  0  0  0  0
    8.6610    3.8220   23.3340 C   0  0  2  0  0  0  0  0  0  0  0  0
    6.5010   -3.9590   19.7500 N   0  0  0  0  0  0  0  0  0  0  0  0
    5.1170    2.0860   18.7630 N   0  0  0  0  0  0  0  0  0  0  0  0
   10.5200    0.7310   22.9480 N   0  0  0  0  0  0  0  0  0  0  0  0
    8.7210   -1.3830   20.6850 N   0  0  0  0  0  0  0  0  0  0  0  0
   10.9050    4.1840   22.3480 N   0  0  0  0  0  0  0  0  0  0  0  0
    6.7880    1.0510   17.2620 O   0  0  0  0  0  0  0  0  0  0  0  0
    8.1980   -0.6800   22.8530 O   0  0  0  0  0  0  0  0  0  0  0  0
    9.7730    1.8950   21.1370 O   0  0  0  0  0  0  0  0  0  0  0  0
   12.6690    4.1840   23.8730 O   0  0  0  0  0  0  0  0  0  0  0  0
   12.4000    6.7120   21.8640 F   0  0  0  0  0  0  0  0  0  0  0  0
   13.0790    4.9330   20.6970 F   0  0  0  0  0  0  0  0  0  0  0  0
   14.2870    5.6490   22.4580 F   0  0  0  0  0  0  0  0  0  0  0  0
    8.9450   -3.6670   18.6640 S   0  0  0  0  0  0  0  0  0  0  0  0
  7  6  1  0
  9  6  1  0
  9  1  1  0
 10  3  1  1
 11  8  1  6
 12 10  1  6
 12 11  1  0
 13 12  1  0
 13 11  1  0
 13 14  1  6
 15 13  1  0
  9 19  1  6
 20 19  1  6
 20  2  1  0
 21  4  1  0
 22  5  1  0
 23 21  1  0
 23 18  1  6
 23 17  1  0
 23 16  1  0
 24  2  1  0
 25  7  1  0
 25  1  1  0
 26 10  1  0
 26  8  1  0
 26  4  1  0
 27 20  1  0
 27  3  1  0
 21 28  1  6
 28  5  1  0
 29  1  1  0
 30  3  1  0
 31  4  1  0
 32  5  1  0
 22 33  1  6
 34 22  1  0
 35 22  1  0
  2 36  1  0
M  END
$$$$
