
     RDKit          3D

 36 38  0  0  0  0  0  0  0  0999 V2000
    6.3510    1.1430   18.3550 C   0  0  0  0  0  0  0  0  0  0  0  0
    7.4830   -3.1920   19.6270 C   0  0  0  0  0  0  0  0  0  0  0  0
    9.0290   -0.8190   22.0060 C   0  0  0  0  0  0  0  0  0  0  0  0
   10.0830    1.9650   22.2860 C   0  0  0  0  0  0  0  0  0  0  0  0
   12.2270    4.5730   22.8400 C   0  0  0  0  0  0  0  0  0  0  0  0
    5.4820    0.7140   20.5890 C   0  0  0  0  0  0  0  0  0  0  0  0
    4.9230    1.8500   20.3230 C   0  0  0  0  0  0  0  0  0  0  0  0
   10.8610    0.6920   24.1700 C   0  0  0  0  0  0  0  0  0  0  0  0
    6.7360    0.5290   19.4340 C   0  0  1  0  0  0  0  0  0  0  0  0
   10.5150   -0.3640   22.2420 C   0  0  2  0  0  0  0  0  0  0  0  0
   11.7240   -0.6310   24.3490 C   0  0  1  0  0  0  0  0  0  0  0  0
   11.4400   -1.4160   23.0210 C   0  0  2  0  0  0  0  0  0  0  0  0
   12.8930   -1.2830   23.5540 C   0  0  1  0  0  0  0  0  0  0  0  0
   13.6910   -0.2160   22.7530 C   0  0  0  0  0  0  0  0  0  0  0  0
   13.5470   -2.5330   24.1560 C   0  0  0  0  0  0  0  0  0  0  0  0
    7.8250    2.7510   24.0780 C   0  0  0  0  0  0  0  0  0  0  0  0
    8.8040    5.1130   24.1810 C   0  0  0  0  0  0  0  0  0  0  0  0
    7.9640    4.1830   21.9960 C   0  0  0  0  0  0  0  0  0  0  0  0
    6.8700   -0.9850   19.1290 C   0  0  0  0  0  0  0  0  0  0  0  0
    7.3890   -1.8350   20.2960 C   0  0  2  0  0  0  0  0  0  0  0  0
   10.0870    3.2730   23.1010 C   0  0  2  0  0  0  0  0  0  0  0  0
   13.0310    5.5100   21.9410 C   0  0  2  0  0  0  0  0  0  0  0  0
    8.6610    3.8220   23.3340 C   0  0  2  0  0  0  0  0  0  0  0  0
    6.5010   -3.9590   19.7500 N   0  0  0  0  0  0  0  0  0  0  0  0
    5.1170    2.0860   18.7630 N   0  0  0  0  0  0  0  0  0  0  0  0
   10.5200    0.7310   22.9480 N   0  0  0  0  0  0  0  0  0  0  0  0
    8.7210   -1.3830   20.6850 N   0  0  0  0  0  0  0  0  0  0  0  0
   10.9050    4.1840   22.3480 N   0  0  0  0  0  0  0  0  0  0  0  0
    6.7880    1.0510   17.2620 O   0  0  0  0  0  0  0  0  0  0  0  0
    8.1980   -0.6800   22.8530 O   0  0  0  0  0  0  0  0  0  0  0  0
    9.7730    1.8950   21.1370 O   0  0  0  0  0  0  0  0  0  0  0  0
   12.6690    4.1840   23.8730 O   0  0  0  0  0  0  0  0  0  0  0  0
   12.4000    6.7120   21.8640 F   0  0  0  0  0  0  0  0  0  0  0  0
   13.0790    4.9330   20.6970 F   0  0  0  0  0  0  0  0  0  0  0  0
   14.2870    5.6490   22.4580 F   0  0  0  0  0  0  0  0  0  0  0  0
    8.9450   -3.6670   18.6640 S   0  0  0  0  0  0  0  0  0  0  0  0
  7  6  1  0
  9  6  1  0
  9  1  1  0
 10  3  1  1
 11  8  1  6
 12 10  1  6
 12 11  1  0
 13 12  1  0
 13 11  1  0
 13 14  1  6
 15 13  1  0
  9 19  1  6
 20 19  1  6
 20  2  1  0
 21  4  1  0
 22  5  1  0
 23 21  1  0
 23 18  1  6
 23 17  1  0
 23 16  1  0
 24  2  1  0
 25  7  1  0
 25  1  1  0
 26 10  1  0
 26  8  1  0
 26  4  1  0
 27 20  1  0
 27  3  1  0
 21 28  1  6
 28  5  1  0
 29  1  1  0
 30  3  1  0
 31  4  1  0
 32  5  1  0
 22 33  1  6
 34 22  1  0
 35 22  1  0
  2 36  1  0
M  END
$$$$
